SandboxData_C2S7_20210305/C2S7N12209/scenario_006/case.raw
0,100.0,33,0,0,60.0
GRID OPTIMIZATION COMPETITION CHALLENGE 2
INPUT DATA FILES ARE RAW JSON CON
1,'BLUE HILL ~1',69.0,1,1,1,1,1.04077983,5.492061,1.1,0.9,1.1,0.9
2,'BLUE HILL ~2',161.0,1,1,1,1,1.03815258,7.603195,1.1,0.9,1.1,0.9
3,'BLUE HILL ~3',69.0,1,1,1,1,1.04153967,5.81332,1.1,0.9,1.1,0.9
4,'BLUE HILL ~4',161.0,1,1,1,1,1.03813589,7.601737,1.1,0.9,1.1,0.9
5,'CAMPBELL 1 1',69.0,1,1,1,1,1.03397,4.632315,1.1,0.9,1.1,0.9
6,'GLENVIL 1',69.0,1,1,1,1,1.03147626,3.716428,1.1,0.9,1.1,0.9
7,'HASTINGS 1 1',161.0,1,1,1,1,1.04313171,6.61479,1.1,0.9,1.1,0.9
8,'HASTINGS 1 2',69.0,1,1,1,1,1.03639567,5.031607,1.1,0.9,1.1,0.9
9,'HASTINGS 1 3',161.0,1,1,1,1,1.04325068,6.628404,1.1,0.9,1.1,0.9
10,'HASTINGS 2 1',69.0,1,1,1,1,1.02356374,4.272691,1.1,0.9,1.1,0.9
11,'HASTINGS 3 1',69.0,1,1,1,1,1.02544427,3.406629,1.1,0.9,1.1,0.9
12,'HASTINGS 4 1',161.0,1,1,1,1,1.04255879,6.54926,1.1,0.9,1.1,0.9
13,'HASTINGS 4 2',69.0,1,1,1,1,1.04237068,5.588435,1.1,0.9,1.1,0.9
14,'HASTINGS 4 3',161.0,1,1,1,1,1.04242861,6.536535,1.1,0.9,1.1,0.9
15,'HOLSTEIN 1 1',69.0,1,1,1,1,1.03472579,4.750891,1.1,0.9,1.1,0.9
16,'HOLSTEIN 1 2',69.0,1,1,1,1,1.03471887,4.750276,1.1,0.9,1.1,0.9
17,'JUNIATA 1 1',69.0,1,1,1,1,1.04031587,5.274897,1.1,0.9,1.1,0.9
18,'JUNIATA 2 1',69.0,1,1,1,1,1.03952432,4.992817,1.1,0.9,1.1,0.9
19,'JUNIATA 3 1',69.0,1,1,1,1,1.03862834,4.299622,1.1,0.9,1.1,0.9
20,'KENESAW 1 1',69.0,1,1,1,1,1.03984666,5.319336,1.1,0.9,1.1,0.9
21,'KENESAW 2 1',69.0,1,1,1,1,1.03901207,3.81054,1.1,0.9,1.1,0.9
22,'KENESAW 3 1',69.0,1,1,1,1,1.04051757,5.363543,1.1,0.9,1.1,0.9
23,'ROSELAND 1',69.0,1,1,1,1,1.03378844,4.522685,1.1,0.9,1.1,0.9
24,'ROSELAND 2',69.0,1,1,1,1,1.03380167,4.52486,1.1,0.9,1.1,0.9
25,'WOOD RIVER~1',69.0,1,1,1,1,1.04138517,5.461201,1.1,0.9,1.1,0.9
26,'WOOD RIVER~2',69.0,1,1,1,1,1.02737629,4.324121,1.1,0.9,1.1,0.9
27,'WOOD RIVER~3',69.0,1,1,1,1,1.02679336,4.254598,1.1,0.9,1.1,0.9
28,'WOOD RIVER~4',69.0,1,1,1,1,1.02678394,4.252947,1.1,0.9,1.1,0.9
29,'CLEARWATER~1',69.0,1,1,1,1,1.04830825,-6.593763,1.1,0.9,1.1,0.9
30,'CLEARWATER~2',69.0,1,1,1,1,1.04829514,-6.594935,1.1,0.9,1.1,0.9
31,'CLEARWATER~3',69.0,1,1,1,1,1.01662982,-4.81969,1.1,0.9,1.1,0.9
32,'CREIGHTON ~1',69.0,1,1,1,1,1.02243316,-4.201275,1.1,0.9,1.1,0.9
33,'CREIGHTON ~2',69.0,1,1,1,1,1.02444446,-4.888503,1.1,0.9,1.1,0.9
34,'CREIGHTON ~3',69.0,1,1,1,1,1.02294505,-4.552901,1.1,0.9,1.1,0.9
35,'ELGIN 1 1',69.0,1,1,1,1,1.02685821,-6.098579,1.1,0.9,1.1,0.9
36,'ELGIN 1 2',69.0,1,1,1,1,1.02686238,-6.097715,1.1,0.9,1.1,0.9
37,'ELGIN 2 1',69.0,1,1,1,1,1.02125728,-5.932847,1.1,0.9,1.1,0.9
38,'EWING 1 1',69.0,1,1,1,1,1.01707983,-1.959862,1.1,0.9,1.1,0.9
39,'EWING 2 1',69.0,1,1,1,1,1.03578234,-6.215533,1.1,0.9,1.1,0.9
40,'NELIGH 1 1',69.0,1,1,1,1,1.02583849,-3.455883,1.1,0.9,1.1,0.9
41,'NELIGH 2 1',161.0,1,1,1,1,1.00181687,-1.039728,1.1,0.9,1.1,0.9
42,'NELIGH 2 2',69.0,1,1,1,1,1.0207938,-3.204312,1.1,0.9,1.1,0.9
43,'NELIGH 2 3',161.0,1,1,1,1,1.00058174,-1.026876,1.1,0.9,1.1,0.9
44,'ORCHARD 1 1',69.0,1,1,1,1,1.02804363,-5.271398,1.1,0.9,1.1,0.9
45,'ORCHARD 1 2',69.0,1,1,1,1,1.02803135,-5.272603,1.1,0.9,1.1,0.9
46,'ORCHARD 2 1',69.0,1,1,1,1,1.03096819,-5.674684,1.1,0.9,1.1,0.9
47,'PLAINVIEW ~1',69.0,1,1,1,1,1.02153373,-3.867154,1.1,0.9,1.1,0.9
48,'PLAINVIEW ~2',69.0,1,1,1,1,1.02197039,-3.853148,1.1,0.9,1.1,0.9
49,'PLAINVIEW ~3',69.0,1,1,1,1,1.02711558,-4.143684,1.1,0.9,1.1,0.9
50,'TILDEN 1 1',69.0,1,1,1,1,1.01664698,-5.532717,1.1,0.9,1.1,0.9
51,'TILDEN 1 2',69.0,1,1,1,1,1.01663542,-5.534326,1.1,0.9,1.1,0.9
52,'TILDEN 2 1',69.0,1,1,1,1,1.01192153,-6.061148,1.1,0.9,1.1,0.9
53,'ARTHUR 1 1',69.0,1,1,1,1,1.02425432,-1.633374,1.1,0.9,1.1,0.9
54,'ARTHUR 2 1',69.0,1,1,1,1,1.02923751,-1.533911,1.1,0.9,1.1,0.9
55,'HYANNIS 1',69.0,1,1,1,1,1.00978386,-1.800127,1.1,0.9,1.1,0.9
56,'HYANNIS 2',69.0,1,1,1,1,1.00977683,-1.800696,1.1,0.9,1.1,0.9
57,'LEMOYNE 1',69.0,1,1,1,1,1.02397466,0.024607,1.1,0.9,1.1,0.9
58,'LEMOYNE 2',69.0,1,1,1,1,1.02397144,0.024125,1.1,0.9,1.1,0.9
59,'WHITMAN 1',69.0,1,1,1,1,1.02086031,2.558277,1.1,0.9,1.1,0.9
60,'BAYARD 1 1',69.0,1,1,1,1,1.02922976,-19.403884,1.1,0.9,1.1,0.9
61,'BAYARD 2 1',69.0,1,1,1,1,1.0320971,-19.652204,1.1,0.9,1.1,0.9
62,'BAYARD 3 1',69.0,1,1,1,1,1.03136563,-19.870084,1.1,0.9,1.1,0.9
63,'BUSHNELL 1',69.0,1,1,1,1,1.02976048,-15.571235,1.1,0.9,1.1,0.9
64,'GERING 1 1',161.0,1,1,1,1,1.03509057,-19.547785,1.1,0.9,1.1,0.9
65,'GERING 1 2',161.0,1,1,1,1,1.03298938,-19.546063,1.1,0.9,1.1,0.9
66,'GERING 1 3',161.0,1,1,1,1,1.03509057,-19.547785,1.1,0.9,1.1,0.9
67,'GERING 2 1',161.0,1,1,1,1,1.02843285,-20.21457,1.1,0.9,1.1,0.9
68,'GERING 2 2',69.0,1,1,1,1,1.02121818,-19.737063,1.1,0.9,1.1,0.9
69,'GERING 2 3',161.0,1,1,1,1,1.02837515,-20.221576,1.1,0.9,1.1,0.9
70,'GERING 3 1',69.0,1,1,1,1,1.01785982,-19.739371,1.1,0.9,1.1,0.9
71,'HARRISBURG~1',69.0,1,1,1,1,1.02087736,-19.155756,1.1,0.9,1.1,0.9
72,'KIMBALL 1 1',69.0,1,1,1,1,1.0186429,-14.236551,1.1,0.9,1.1,0.9
73,'KIMBALL 2 1',69.0,1,1,1,1,1.0287534,-13.798007,1.1,0.9,1.1,0.9
74,'PINE BLUFF~1',69.0,1,1,1,1,1.02764571,-15.758689,1.1,0.9,1.1,0.9
75,'PINE BLUFF~2',161.0,1,1,1,1,1.0341233,-16.642813,1.1,0.9,1.1,0.9
76,'POTTER 1',69.0,1,1,1,1,1.03302801,-13.069406,1.1,0.9,1.1,0.9
77,'ANSELMO 1',69.0,1,1,1,1,1.0204103,5.962753,1.1,0.9,1.1,0.9
78,'DUNNING 1',69.0,1,1,1,1,1.02622342,6.589164,1.1,0.9,1.1,0.9
79,'ALBION 1 1',161.0,1,1,1,1,1.03233314,-3.989723,1.1,0.9,1.1,0.9
80,'ALBION 1 2',69.0,1,1,1,1,1.02343273,-4.13073,1.1,0.9,1.1,0.9
81,'ALBION 1 3',161.0,1,1,1,1,1.03245807,-3.98911,1.1,0.9,1.1,0.9
82,'ALBION 2 1',69.0,1,1,1,1,1.0211426,-4.176519,1.1,0.9,1.1,0.9
83,'ALBION 3 1',69.0,1,1,1,1,1.0200901,-3.968524,1.1,0.9,1.1,0.9
84,'CEDAR RAPI~1',69.0,1,1,1,1,1.02218306,-3.823194,1.1,0.9,1.1,0.9
85,'CEDAR RAP~14',69.0,1,1,1,1,1.02386081,-1.074931,1.1,0.9,1.1,0.9
86,'NEWMAN GRO~1',69.0,1,1,1,1,1.01715887,-4.973046,1.1,0.9,1.1,0.9
87,'NEWMAN GRO~2',69.0,1,1,1,1,1.01715434,-4.973798,1.1,0.9,1.1,0.9
88,'NEWMAN GRO~3',69.0,1,1,1,1,1.01720726,-5.206454,1.1,0.9,1.1,0.9
89,'NEWMAN GRO~4',69.0,1,1,1,1,1.01721585,-5.205606,1.1,0.9,1.1,0.9
90,'NEWMAN GRO~5',69.0,1,1,1,1,1.01697707,-5.284948,1.1,0.9,1.1,0.9
91,'NEWMAN GRO~6',69.0,1,1,1,1,1.01696181,-5.285962,1.1,0.9,1.1,0.9
92,'PETERSBURG~1',69.0,1,1,1,1,1.01893616,-5.762629,1.1,0.9,1.1,0.9
93,'PETERSBURG~2',69.0,1,1,1,1,1.01894343,-5.761627,1.1,0.9,1.1,0.9
94,'SAINT EDWA~1',69.0,1,1,1,1,1.01255524,-4.445294,1.1,0.9,1.1,0.9
95,'SAINT EDWA~2',69.0,1,1,1,1,1.01750159,-4.552531,1.1,0.9,1.1,0.9
96,'ALLIANCE 1 1',69.0,1,1,1,1,0.99961245,-13.858088,1.1,0.9,1.1,0.9
97,'ALLIANCE 2 1',69.0,1,1,1,1,1.00061297,-14.185619,1.1,0.9,1.1,0.9
98,'ALLIANCE 3 1',161.0,1,1,1,1,1.02400875,-12.911707,1.1,0.9,1.1,0.9
99,'ALLIANCE 3 2',161.0,1,1,1,1,1.02104938,-12.909408,1.1,0.9,1.1,0.9
100,'ALLIANCE 3 3',69.0,1,1,1,1,1.00450552,-13.278275,1.1,0.9,1.1,0.9
101,'ALLIANCE 3 4',161.0,1,1,1,1,1.02097058,-12.904891,1.1,0.9,1.1,0.9
102,'HEMINGFORD~1',69.0,1,1,1,1,1.00526667,-14.289059,1.1,0.9,1.1,0.9
103,'HEMINGFORD~2',69.0,1,1,1,1,1.00529301,-14.286947,1.1,0.9,1.1,0.9
104,'HEMINGFORD~3',69.0,1,1,1,1,1.00759065,-15.435176,1.1,0.9,1.1,0.9
105,'BUTTE 1 1',69.0,1,1,1,1,1.02357352,0.080438,1.1,0.9,1.1,0.9
106,'BUTTE 1 2',69.0,1,1,1,1,1.02355075,0.079087,1.1,0.9,1.1,0.9
107,'LYNCH 1 1',69.0,1,1,1,1,1.02910447,0.260265,1.1,0.9,1.1,0.9
108,'LYNCH 2 1',69.0,1,1,1,1,1.02949107,0.850936,1.1,0.9,1.1,0.9
109,'LYNCH 2 2',69.0,1,1,1,1,1.02949965,0.851787,1.1,0.9,1.1,0.9
110,'NAPER 1',69.0,1,1,1,1,1.02762771,0.468975,1.1,0.9,1.1,0.9
111,'SPENCER 1 1',69.0,1,1,1,1,1.02246439,-0.255516,1.1,0.9,1.1,0.9
112,'SPENCER 2 1',69.0,1,1,1,1,1.01995397,-0.751198,1.1,0.9,1.1,0.9
113,'AINSWORTH ~1',69.0,1,1,1,1,0.96432906,-19.298594,1.1,0.9,1.1,0.9
114,'AINSWORTH ~2',69.0,1,1,1,1,0.96362436,-19.182528,1.1,0.9,1.1,0.9
115,'AINSWORTH ~3',69.0,1,1,1,1,0.96360958,-19.184304,1.1,0.9,1.1,0.9
116,'JOHNSTOWN 1',69.0,1,1,1,1,0.95823443,-19.595053,1.1,0.9,1.1,0.9
117,'LONG PINE 1',69.0,1,1,1,1,0.97108394,-16.077999,1.1,0.9,1.1,0.9
118,'AMHERST 1 1',69.0,1,1,1,1,1.0229311,5.103513,1.1,0.9,1.1,0.9
119,'AMHERST 2 1',69.0,1,1,1,1,1.01951921,4.259365,1.1,0.9,1.1,0.9
120,'ELM CREEK ~1',69.0,1,1,1,1,1.02600741,4.934403,1.1,0.9,1.1,0.9
121,'ELM CREEK ~2',69.0,1,1,1,1,1.02601349,4.935168,1.1,0.9,1.1,0.9
122,'ELM CREEK ~3',69.0,1,1,1,1,1.02287257,4.750603,1.1,0.9,1.1,0.9
123,'GIBBON 1 1',69.0,1,1,1,1,1.02701485,4.683654,1.1,0.9,1.1,0.9
124,'GIBBON 2 1',69.0,1,1,1,1,1.026618,4.818077,1.1,0.9,1.1,0.9
125,'KEARNEY 1 1',69.0,1,1,1,1,1.01452541,3.661588,1.1,0.9,1.1,0.9
126,'KEARNEY 1 2',69.0,1,1,1,1,1.01447058,3.652492,1.1,0.9,1.1,0.9
127,'KEARNEY 2 1',161.0,1,1,1,1,1.04146385,8.63331,1.1,0.9,1.1,0.9
128,'KEARNEY 3 1',69.0,1,1,1,1,1.01327574,3.422451,1.1,0.9,1.1,0.9
129,'KEARNEY 4 1',500.0,1,1,1,1,1.04561687,10.087334,1.1,0.9,1.1,0.9
130,'KEARNEY 4 2',161.0,1,1,1,1,1.04527318,9.568433,1.1,0.9,1.1,0.9
131,'KEARNEY 4 3',500.0,1,1,1,1,1.04552841,10.079055,1.1,0.9,1.1,0.9
132,'KEARNEY 5 1',161.0,1,1,1,1,1.03953278,7.780902,1.1,0.9,1.1,0.9
133,'KEARNEY 5 ~1',161.0,1,1,1,1,1.03953278,7.780902,1.1,0.9,1.1,0.9
134,'KEARNEY 5 2',69.0,1,1,1,1,1.03389621,5.353866,1.1,0.9,1.1,0.9
135,'KEARNEY 5 3',161.0,1,1,1,1,1.03963923,7.797729,1.1,0.9,1.1,0.9
136,'KEARNEY 6 1',69.0,1,1,1,1,1.01215672,3.530003,1.1,0.9,1.1,0.9
137,'KEARNEY 7 1',69.0,1,1,1,1,1.01438177,3.757272,1.1,0.9,1.1,0.9
138,'KEARNEY 8 1',161.0,1,1,1,1,1.03972077,8.12544,1.1,0.9,1.1,0.9
139,'PLEASANTON~1',69.0,1,1,1,1,1.02364028,4.147072,1.1,0.9,1.1,0.9
140,'PLEASANTON~2',69.0,1,1,1,1,1.027089,4.157711,1.1,0.9,1.1,0.9
141,'RAVENNA 1 1',69.0,1,1,1,1,1.03634322,4.889018,1.1,0.9,1.1,0.9
142,'RAVENNA 1 2',69.0,1,1,1,1,1.03633392,4.887639,1.1,0.9,1.1,0.9
143,'RAVENNA 2 1',69.0,1,1,1,1,1.03274643,4.770785,1.1,0.9,1.1,0.9
144,'RAVENNA 3 1',161.0,1,1,1,1,1.03856313,5.708649,1.1,0.9,1.1,0.9
145,'RAVENNA 3 2',69.0,1,1,1,1,1.03807139,4.893512,1.1,0.9,1.1,0.9
146,'RAVENNA 3 3',161.0,1,1,1,1,1.03863835,5.725342,1.1,0.9,1.1,0.9
147,'SHELTON 1 1',69.0,1,1,1,1,1.02612603,4.501915,1.1,0.9,1.1,0.9
148,'SHELTON 2 1',69.0,1,1,1,1,1.03498006,5.0697,1.1,0.9,1.1,0.9
149,'CRAIG 1',69.0,1,1,1,1,1.02261579,0.300721,1.1,0.9,1.1,0.9
150,'CRAIG 2',69.0,1,1,1,1,1.02261901,0.301147,1.1,0.9,1.1,0.9
151,'DECATUR 1',69.0,1,1,1,1,1.01642919,1.717524,1.1,0.9,1.1,0.9
152,'HERMAN 1 1',69.0,1,1,1,1,1.02203155,-1.049266,1.1,0.9,1.1,0.9
153,'LYONS 1 1',69.0,1,1,1,1,1.01416636,1.535476,1.1,0.9,1.1,0.9
154,'LYONS 1 2',69.0,1,1,1,1,1.01415217,1.534603,1.1,0.9,1.1,0.9
155,'LYONS 2 1',69.0,1,1,1,1,1.01780999,0.092563,1.1,0.9,1.1,0.9
156,'LYONS 2 2',69.0,1,1,1,1,1.01779437,0.090737,1.1,0.9,1.1,0.9
157,'OAKLAND 1 1',69.0,1,1,1,1,1.01258564,-2.732988,1.1,0.9,1.1,0.9
158,'OAKLAND 2 1',69.0,1,1,1,1,1.01592386,-1.183054,1.1,0.9,1.1,0.9
159,'OAKLAND 3 1',69.0,1,1,1,1,1.01702678,-0.957245,1.1,0.9,1.1,0.9
160,'OAKLAND 3 2',69.0,1,1,1,1,1.01701283,-0.958361,1.1,0.9,1.1,0.9
161,'TEKAMAH 1 1',69.0,1,1,1,1,1.02854836,0.213211,1.1,0.9,1.1,0.9
162,'TEKAMAH 2 1',69.0,1,1,1,1,1.02566659,0.193544,1.1,0.9,1.1,0.9
163,'TEKAMAH 3 1',161.0,1,1,1,1,1.03679252,1.629427,1.1,0.9,1.1,0.9
164,'TEKAMAH 3 2',69.0,1,1,1,1,1.03105414,0.257576,1.1,0.9,1.1,0.9
165,'TEKAMAH 3 3',161.0,1,1,1,1,1.03677464,1.627154,1.1,0.9,1.1,0.9
166,'BELLWOOD 1',69.0,1,1,1,1,1.00981092,-4.476261,1.1,0.9,1.1,0.9
167,'BRAINARD 1 1',69.0,1,1,1,1,1.02058506,-3.547488,1.1,0.9,1.1,0.9
168,'BRAINARD 2 1',69.0,1,1,1,1,1.02119923,-3.297413,1.1,0.9,1.1,0.9
169,'COLUMBUS 1 1',69.0,1,1,1,1,1.00351202,-4.895638,1.1,0.9,1.1,0.9
170,'COLUMBUS 2 1',161.0,1,1,1,1,1.03167903,-3.619903,1.1,0.9,1.1,0.9
171,'COLUMBUS 2 2',161.0,1,1,1,1,1.03176391,-3.611223,1.1,0.9,1.1,0.9
172,'COLUMBUS 3 1',69.0,1,1,1,1,0.99846512,-5.086137,1.1,0.9,1.1,0.9
173,'COLUMBUS 3 2',69.0,1,1,1,1,0.99812752,-5.099946,1.1,0.9,1.1,0.9
174,'COLUMBUS 4 1',161.0,1,1,1,1,1.03344512,-4.278476,1.1,0.9,1.1,0.9
175,'COLUMBUS 4 2',161.0,1,1,1,1,1.03332388,-4.289028,1.1,0.9,1.1,0.9
176,'David City~1',69.0,1,1,1,1,1.02419806,-3.892751,1.1,0.9,1.1,0.9
177,'David City~5',69.0,1,1,1,1,1.02297151,-3.843886,1.1,0.9,1.1,0.9
178,'DAVID CITY~8',69.0,1,1,1,1,1.01361966,-4.295801,1.1,0.9,1.1,0.9
179,'RISING CIT~1',69.0,1,1,1,1,1.02321613,-3.629519,1.1,0.9,1.1,0.9
180,'RISING CIT~2',69.0,1,1,1,1,1.02321327,-3.629974,1.1,0.9,1.1,0.9
181,'SHELBY 1 1',69.0,1,1,1,1,1.01173329,-4.567756,1.1,0.9,1.1,0.9
182,'SHELBY 2 1',69.0,1,1,1,1,1.02293861,-3.054288,1.1,0.9,1.1,0.9
183,'ASHLAND 1 1',69.0,1,1,1,1,1.00904775,-1.061932,1.1,0.9,1.1,0.9
184,'ASHLAND 2 1',69.0,1,1,1,1,1.02693534,-0.944744,1.1,0.9,1.1,0.9
185,'ASHLAND 3 1',69.0,1,1,1,1,1.00913787,-0.947251,1.1,0.9,1.1,0.9
186,'AVOCA 1 1',69.0,1,1,1,1,1.02048898,0.483647,1.1,0.9,1.1,0.9
187,'EAGLE 1 1',69.0,1,1,1,1,1.01135266,-0.312343,1.1,0.9,1.1,0.9
188,'EAGLE 2 1',69.0,1,1,1,1,1.00604033,-0.319785,1.1,0.9,1.1,0.9
189,'EAGLE 2 2',69.0,1,1,1,1,1.00602615,-0.321133,1.1,0.9,1.1,0.9
190,'EAGLE 3 1',69.0,1,1,1,1,1.00521636,-0.487853,1.1,0.9,1.1,0.9
191,'EAGLE 3 2',69.0,1,1,1,1,1.00514865,-0.492661,1.1,0.9,1.1,0.9
192,'GREENWOOD ~1',69.0,1,1,1,1,1.01278114,-0.219469,1.1,0.9,1.1,0.9
193,'LOUISVILLE 1',69.0,1,1,1,1,0.99953151,-4.072099,1.1,0.9,1.1,0.9
194,'MURDOCK 1 1',69.0,1,1,1,1,1.02488196,-0.324014,1.1,0.9,1.1,0.9
195,'MURRAY 1 1',69.0,1,1,1,1,1.03218853,-0.74704,1.1,0.9,1.1,0.9
196,'PLATTSMOUT~1',69.0,1,1,1,1,1.01969361,-4.526091,1.1,0.9,1.1,0.9
197,'PLATTSMOUT~2',69.0,1,1,1,1,1.02044904,-4.249575,1.1,0.9,1.1,0.9
198,'PLATTSMOUT~3',69.0,1,1,1,1,1.03652418,-5.236808,1.1,0.9,1.1,0.9
199,'UNION 1 1',69.0,1,1,1,1,1.0329814,0.014606,1.1,0.9,1.1,0.9
200,'WAVERLY 1 1',69.0,1,1,1,1,1.01060903,-1.155062,1.1,0.9,1.1,0.9
...
0 / END OF BUS DATA BEGIN LOAD DATA
1,'1',1,1,1,1.761,0.219,0.0,0.0,0.0,0.0,1,1,0
4,'1',1,1,1,2.796,1.112,0.0,0.0,0.0,0.0,1,1,0
5,'1',1,1,1,2.98,1.076,0.0,0.0,0.0,0.0,1,1,0
6,'1',1,1,1,3.356,1.172,0.0,0.0,0.0,0.0,1,1,0
8,'1',1,1,1,25.84,5.899,0.0,0.0,0.0,0.0,1,1,0
10,'1',1,1,1,25.23,18.017,0.0,0.0,0.0,0.0,1,1,0
11,'1',1,1,1,25.97,7.928,0.0,0.0,0.0,0.0,1,1,0
14,'1',1,1,1,21.924,6.67,0.0,0.0,0.0,0.0,1,1,0
16,'1',1,1,1,1.102,0.385,0.0,0.0,0.0,0.0,1,1,0
17,'1',1,1,1,2.157,0.159,0.0,0.0,0.0,0.0,1,1,0
18,'1',1,1,1,2.178,0.524,0.0,0.0,0.0,0.0,1,1,0
19,'1',1,1,1,2.59,0.434,0.0,0.0,0.0,0.0,1,1,0
20,'1',1,1,1,1.43,0.612,0.0,0.0,0.0,0.0,1,1,0
21,'1',1,1,1,1.12,0.115,0.0,0.0,0.0,0.0,1,1,0
22,'1',1,1,1,1.032,0.199,0.0,0.0,0.0,0.0,1,1,0
23,'1',1,1,1,3.53,0.449,0.0,0.0,0.0,0.0,1,1,0
25,'1',1,1,1,2.612,0.576,0.0,0.0,0.0,0.0,1,1,0
26,'1',1,1,1,2.672,0.866,0.0,0.0,0.0,0.0,1,1,0
28,'1',1,1,1,3.08,0.163,0.0,0.0,0.0,0.0,1,1,0
30,'1',1,1,1,2.051,0.776,0.0,0.0,0.0,0.0,1,1,0
31,'1',1,1,1,0.684,0.123,0.0,0.0,0.0,0.0,1,1,0
32,'1',1,1,1,2.193,0.42,0.0,0.0,0.0,0.0,1,1,0
33,'1',1,1,1,2.219,0.403,0.0,0.0,0.0,0.0,1,1,0
34,'1',1,1,1,1.596,1.548,0.0,0.0,0.0,0.0,1,1,0
35,'1',1,1,1,1.514,0.071,0.0,0.0,0.0,0.0,1,1,0
37,'1',1,1,1,1.948,1.122,0.0,0.0,0.0,0.0,1,1,0
38,'1',1,1,1,0.909,0.418,0.0,0.0,0.0,0.0,1,1,0
39,'1',1,1,1,2.35,0.581,0.0,0.0,0.0,0.0,1,1,0
40,'1',1,1,1,3.18,1.204,0.0,0.0,0.0,0.0,1,1,0
43,'1',1,1,1,5.25,2.497,0.0,0.0,0.0,0.0,1,1,0
45,'1',1,1,1,2.012,0.695,0.0,0.0,0.0,0.0,1,1,0
46,'1',1,1,1,0.708,0.051,0.0,0.0,0.0,0.0,1,1,0
47,'1',1,1,1,1.399,0.197,0.0,0.0,0.0,0.0,1,1,0
48,'1',1,1,1,1.801,0.111,0.0,0.0,0.0,0.0,1,1,0
49,'1',1,1,1,2.31,0.7,0.0,0.0,0.0,0.0,1,1,0
51,'1',1,1,1,2.687,0.4,0.0,0.0,0.0,0.0,1,1,0
52,'1',1,1,1,2.154,0.321,0.0,0.0,0.0,0.0,1,1,0
53,'1',1,1,1,0.333,0.157,0.0,0.0,0.0,0.0,1,1,0
54,'1',1,1,1,0.723,0.135,0.0,0.0,0.0,0.0,1,1,0
56,'1',1,1,1,1.044,0.4,0.0,0.0,0.0,0.0,1,1,0
58,'1',1,1,1,0.865,0.101,0.0,0.0,0.0,0.0,1,1,0
59,'1',1,1,1,0.716,0.35,0.0,0.0,0.0,0.0,1,1,0
60,'1',1,1,1,2.774,1.162,0.0,0.0,0.0,0.0,1,1,0
61,'1',1,1,1,2.106,0.595,0.0,0.0,0.0,0.0,1,1,0
62,'1',1,1,1,2.572,0.126,0.0,0.0,0.0,0.0,1,1,0
63,'1',1,1,1,0.776,0.402,0.0,0.0,0.0,0.0,1,1,0
65,'1',1,1,1,14.55,4.155,0.0,0.0,0.0,0.0,1,1,0
69,'1',1,1,1,12.916,2.327,0.0,0.0,0.0,0.0,1,1,0
70,'1',1,1,1,8.55,2.106,0.0,0.0,0.0,0.0,1,1,0
71,'1',1,1,1,0.92,0.066,0.0,0.0,0.0,0.0,1,1,0
72,'1',1,1,1,8.21,3.906,0.0,0.0,0.0,0.0,1,1,0
73,'1',1,1,1,3.466,1.766,0.0,0.0,0.0,0.0,1,1,0
74,'1',1,1,1,2.05,0.768,0.0,0.0,0.0,0.0,1,1,0
75,'1',1,1,1,3.602,0.293,0.0,0.0,0.0,0.0,1,1,0
76,'1',1,1,1,2.68,0.438,0.0,0.0,0.0,0.0,1,1,0
77,'1',1,1,1,2.039,0.61,0.0,0.0,0.0,0.0,1,1,0
78,'1',1,1,1,1.459,0.031,0.0,0.0,0.0,0.0,1,1,0
80,'1',1,1,1,3.099,2.13,0.0,0.0,0.0,0.0,1,1,0
82,'1',1,1,1,3.179,0.4,0.0,0.0,0.0,0.0,1,1,0
83,'1',1,1,1,3.457,1.304,0.0,0.0,0.0,0.0,1,1,0
84,'1',1,1,1,1.308,0.453,0.0,0.0,0.0,0.0,1,1,0
85,'1',1,1,1,0.714,0.261,0.0,0.0,0.0,0.0,1,1,0
87,'1',1,1,1,1.183,0.179,0.0,0.0,0.0,0.0,1,1,0
88,'1',1,1,1,1.49,0.489,0.0,0.0,0.0,0.0,1,1,0
91,'1',1,1,1,1.868,0.975,0.0,0.0,0.0,0.0,1,1,0
92,'1',1,1,1,1.83,0.275,0.0,0.0,0.0,0.0,1,1,0
94,'1',1,1,1,2.9,1.164,0.0,0.0,0.0,0.0,1,1,0
95,'1',1,1,1,1.45,0.39,0.0,0.0,0.0,0.0,1,1,0
96,'1',1,1,1,11.311,5.575,0.0,0.0,0.0,0.0,1,1,0
97,'1',1,1,1,9.287,2.81,0.0,0.0,0.0,0.0,1,1,0
101,'1',1,1,1,11.322,1.914,0.0,0.0,0.0,0.0,1,1,0
102,'1',1,1,1,4.09,1.567,0.0,0.0,0.0,0.0,1,1,0
104,'1',1,1,1,1.92,1.746,0.0,0.0,0.0,0.0,1,1,0
106,'1',1,1,1,2.528,1.485,0.0,0.0,0.0,0.0,1,1,0
107,'1',1,1,1,0.366,0.114,0.0,0.0,0.0,0.0,1,1,0
108,'1',1,1,1,1.494,0.425,0.0,0.0,0.0,0.0,1,1,0
110,'1',1,1,1,0.609,0.292,0.0,0.0,0.0,0.0,1,1,0
111,'1',1,1,1,0.818,0.207,0.0,0.0,0.0,0.0,1,1,0
112,'1',1,1,1,0.946,0.516,0.0,0.0,0.0,0.0,1,1,0
113,'1',1,1,1,5.319,1.177,0.0,0.0,0.0,0.0,1,1,0
115,'1',1,1,1,2.979,0.548,0.0,0.0,0.0,0.0,1,1,0
116,'1',1,1,1,0.678,0.084,0.0,0.0,0.0,0.0,1,1,0
117,'1',1,1,1,1.305,0.464,0.0,0.0,0.0,0.0,1,1,0
118,'1',1,1,1,1.68,0.059,0.0,0.0,0.0,0.0,1,1,0
119,'1',1,1,1,4.453,1.078,0.0,0.0,0.0,0.0,1,1,0
120,'1',1,1,1,1.386,0.322,0.0,0.0,0.0,0.0,1,1,0
122,'1',1,1,1,2.174,0.07,0.0,0.0,0.0,0.0,1,1,0
123,'1',1,1,1,3.76,1.156,0.0,0.0,0.0,0.0,1,1,0
124,'1',1,1,1,9.277,5.575,0.0,0.0,0.0,0.0,1,1,0
126,'1',1,1,1,14.474,2.049,0.0,0.0,0.0,0.0,1,1,0
127,'1',1,1,1,13.174,3.596,0.0,0.0,0.0,0.0,1,1,0
128,'1',1,1,1,16.671,11.121,0.0,0.0,0.0,0.0,1,1,0
131,'1',1,1,1,16.08,4.622,0.0,0.0,0.0,0.0,1,1,0
134,'1',1,1,1,15.8,1.901,0.0,0.0,0.0,0.0,1,1,0
136,'1',1,1,1,10.506,3.304,0.0,0.0,0.0,0.0,1,1,0
137,'1',1,1,1,12.778,3.951,0.0,0.0,0.0,0.0,1,1,0
138,'1',1,1,1,11.112,3.802,0.0,0.0,0.0,0.0,1,1,0
139,'1',1,1,1,0.98,0.108,0.0,0.0,0.0,0.0,1,1,0
139,'2',1,1,1,0.5,0.153,0.0,0.0,0.0,0.0,1,1,0
140,'1',1,1,1,1.682,0.62,0.0,0.0,0.0,0.0,1,1,0
142,'1',1,1,1,2.264,0.41,0.0,0.0,0.0,0.0,1,1,0
143,'1',1,1,1,2.81,0.778,0.0,0.0,0.0,0.0,1,1,0
145,'1',1,1,1,1.798,0.439,0.0,0.0,0.0,0.0,1,1,0
147,'1',1,1,1,1.724,0.76,0.0,0.0,0.0,0.0,1,1,0
148,'1',1,1,1,1.736,0.246,0.0,0.0,0.0,0.0,1,1,0
149,'1',1,1,1,0.7,0.132,0.0,0.0,0.0,0.0,1,1,0
151,'1',1,1,1,2.458,0.465,0.0,0.0,0.0,0.0,1,1,0
152,'1',1,1,1,1.047,0.36,0.0,0.0,0.0,0.0,1,1,0
152,'2',1,1,1,0.477,0.234,0.0,0.0,0.0,0.0,1,1,0
154,'1',1,1,1,1.522,0.885,0.0,0.0,0.0,0.0,1,1,0
156,'1',1,1,1,1.398,0.351,0.0,0.0,0.0,0.0,1,1,0
156,'2',1,1,1,1.63,0.312,0.0,0.0,0.0,0.0,1,1,0
157,'1',1,1,1,3.284,1.485,0.0,0.0,0.0,0.0,1,1,0
158,'1',1,1,1,2.3,0.297,0.0,0.0,0.0,0.0,1,1,0
160,'1',1,1,1,2.214,0.766,0.0,0.0,0.0,0.0,1,1,0
161,'1',1,1,1,1.92,0.633,0.0,0.0,0.0,0.0,1,1,0
162,'1',1,1,1,2.757,1.111,0.0,0.0,0.0,0.0,1,1,0
165,'1',1,1,1,3.805,0.666,0.0,0.0,0.0,0.0,1,1,0
166,'1',1,1,1,3.887,3.088,0.0,0.0,0.0,0.0,1,1,0
167,'1',1,1,1,1.542,0.581,0.0,0.0,0.0,0.0,1,1,0
168,'1',1,1,1,1.727,0.26,0.0,0.0,0.0,0.0,1,1,0
169,'1',1,1,1,16.194,2.321,0.0,0.0,0.0,0.0,1,1,0
170,'1',1,1,1,16.722,3.791,0.0,0.0,0.0,0.0,1,1,0
173,'1',1,1,1,26.99,25.715,0.0,0.0,0.0,0.0,1,1,0
175,'1',1,1,1,20.711,7.936,0.0,0.0,0.0,0.0,1,1,0
176,'1',1,1,1,4.172,0.459,0.0,0.0,0.0,0.0,1,1,0
177,'1',1,1,1,4.908,2.281,0.0,0.0,0.0,0.0,1,1,0
178,'1',1,1,1,5.051,3.623,0.0,0.0,0.0,0.0,1,1,0
179,'1',1,1,1,0.839,0.757,0.0,0.0,0.0,0.0,1,1,0
180,'1',1,1,1,0.829,0.052,0.0,0.0,0.0,0.0,1,1,0
181,'1',1,1,1,1.053,0.242,0.0,0.0,0.0,0.0,1,1,0
182,'1',1,1,1,2.62,1.478,0.0,0.0,0.0,0.0,1,1,0
183,'1',1,1,1,4.768,1.148,0.0,0.0,0.0,0.0,1,1,0
184,'1',1,1,1,4.782,0.222,0.0,0.0,0.0,0.0,1,1,0
185,'1',1,1,1,4.742,2.602,0.0,0.0,0.0,0.0,1,1,0
186,'1',1,1,1,1.645,0.05,0.0,0.0,0.0,0.0,1,1,0
187,'1',1,1,1,2.966,1.037,0.0,0.0,0.0,0.0,1,1,0
187,'2',1,1,1,0.703,0.19,0.0,0.0,0.0,0.0,1,1,0
189,'1',1,1,1,2.454,0.727,0.0,0.0,0.0,0.0,1,1,0
191,'1',1,1,1,8.44,4.076,0.0,0.0,0.0,0.0,1,1,0
192,'1',1,1,1,3.09,0.206,0.0,0.0,0.0,0.0,1,1,0
193,'1',1,1,1,6.291,0.451,0.0,0.0,0.0,0.0,1,1,0
194,'1',1,1,1,0.95,0.315,0.0,0.0,0.0,0.0,1,1,0
195,'1',1,1,1,0.908,0.197,0.0,0.0,0.0,0.0,1,1,0
195,'2',1,1,1,0.842,0.297,0.0,0.0,0.0,0.0,1,1,0
196,'1',1,1,1,15.25,1.48,0.0,0.0,0.0,0.0,1,1,0
197,'1',1,1,1,17.76,12.302,0.0,0.0,0.0,0.0,1,1,0
198,'1',1,1,1,15.86,7.645,0.0,0.0,0.0,0.0,1,1,0
199,'1',1,1,1,0.87,0.386,0.0,0.0,0.0,0.0,1,1,0
199,'2',1,1,1,0.513,0.2,0.0,0.0,0.0,0.0,1,1,0
200,'1',1,1,1,4.89,3.186,0.0,0.0,0.0,0.0,1,1,0
200,'2',1,1,1,0.342,0.08,0.0,0.0,0.0,0.0,1,1,0
201,'1',1,1,1,4.89,0.693,0.0,0.0,0.0,0.0,1,1,0
201,'2',1,1,1,0.71,0.065,0.0,0.0,0.0,0.0,1,1,0
203,'1',1,1,1,4.478,1.743,0.0,0.0,0.0,0.0,1,1,0
205,'1',1,1,1,4.072,0.783,0.0,0.0,0.0,0.0,1,1,0
206,'1',1,1,1,4.502,2.4,0.0,0.0,0.0,0.0,1,1,0
207,'1',1,1,1,0.684,0.303,0.0,0.0,0.0,0.0,1,1,0
208,'1',1,1,1,1.923,0.538,0.0,0.0,0.0,0.0,1,1,0
209,'1',1,1,1,1.765,0.669,0.0,0.0,0.0,0.0,1,1,0
209,'2',1,1,1,2.37,0.05,0.0,0.0,0.0,0.0,1,1,0
210,'1',1,1,1,3.22,0.947,0.0,0.0,0.0,0.0,1,1,0
212,'1',1,1,1,3.187,0.303,0.0,0.0,0.0,0.0,1,1,0
213,'1',1,1,1,3.461,0.847,0.0,0.0,0.0,0.0,1,1,0
215,'1',1,1,1,3.83,0.492,0.0,0.0,0.0,0.0,1,1,0
216,'1',1,1,1,1.6,0.436,0.0,0.0,0.0,0.0,1,1,0
217,'1',1,1,1,1.768,0.432,0.0,0.0,0.0,0.0,1,1,0
218,'1',1,1,1,1.206,0.536,0.0,0.0,0.0,0.0,1,1,0
219,'1',1,1,1,0.857,0.506,0.0,0.0,0.0,0.0,1,1,0
220,'1',1,1,1,1.938,0.429,0.0,0.0,0.0,0.0,1,1,0
222,'1',1,1,1,1.715,1.158,0.0,0.0,0.0,0.0,1,1,0
223,'1',1,1,1,1.254,0.195,0.0,0.0,0.0,0.0,1,1,0
224,'1',1,1,1,2.947,0.642,0.0,0.0,0.0,0.0,1,1,0
225,'1',1,1,1,1.131,0.59,0.0,0.0,0.0,0.0,1,1,0
227,'1',1,1,1,1.38,0.224,0.0,0.0,0.0,0.0,1,1,0
228,'1',1,1,1,1.003,0.559,0.0,0.0,0.0,0.0,1,1,0
229,'1',1,1,1,11.17,0.982,0.0,0.0,0.0,0.0,1,1,0
230,'1',1,1,1,10.986,6.103,0.0,0.0,0.0,0.0,1,1,0
231,'1',1,1,1,18.31,1.623,0.0,0.0,0.0,0.0,1,1,0
233,'1',1,1,1,15.04,3.221,0.0,0.0,0.0,0.0,1,1,0
235,'1',1,1,1,0.435,0.248,0.0,0.0,0.0,0.0,1,1,0
237,'1',1,1,1,0.978,0.465,0.0,0.0,0.0,0.0,1,1,0
238,'1',1,1,1,2.563,1.14,0.0,0.0,0.0,0.0,1,1,0
240,'1',1,1,1,3.29,0.433,0.0,0.0,0.0,0.0,1,1,0
240,'2',1,1,1,0.402,0.1,0.0,0.0,0.0,0.0,1,1,0
241,'1',1,1,1,3.134,0.792,0.0,0.0,0.0,0.0,1,1,0
243,'1',1,1,1,0.892,0.658,0.0,0.0,0.0,0.0,1,1,0
244,'1',1,1,1,1.491,0.141,0.0,0.0,0.0,0.0,1,1,0
245,'1',1,1,1,1.082,0.166,0.0,0.0,0.0,0.0,1,1,0
246,'1',1,1,1,0.871,0.123,0.0,0.0,0.0,0.0,1,1,0
247,'1',1,1,1,1.12,0.314,0.0,0.0,0.0,0.0,1,1,0
248,'1',1,1,1,1.5,0.437,0.0,0.0,0.0,0.0,1,1,0
250,'1',1,1,1,3.24,0.421,0.0,0.0,0.0,0.0,1,1,0
253,'1',1,1,1,3.24,1.319,0.0,0.0,0.0,0.0,1,1,0
254,'1',1,1,1,3.24,1.326,0.0,0.0,0.0,0.0,1,1,0
256,'1',1,1,1,1.19,0.343,0.0,0.0,0.0,0.0,1,1,0
257,'1',1,1,1,0.6,0.329,0.0,0.0,0.0,0.0,1,1,0
258,'1',1,1,1,1.111,0.061,0.0,0.0,0.0,0.0,1,1,0
261,'1',1,1,1,0.756,0.266,0.0,0.0,0.0,0.0,1,1,0
261,'2',1,1,1,0.992,0.306,0.0,0.0,0.0,0.0,1,1,0
...
0 / END OF LOAD DATA BEGIN FIXED SHUNT DATA
0 / END OF FIXED SHUNT DATA BEGIN GENERATOR DATA
1239,'1',104.216,14.193,55.38,-38.77,1.04,0,130.56,0.0,1.0,0.0,0.0,1.0,1,100.0,108.8,29.3,1,1.0,0,1.0,0,1.0,0,1.0,0,1.0
1243,'1',54.311,-10.032,26.42,-18.49,1.04,0,68.04,0.0,1.0,0.0,0.0,1.0,1,100.0,56.7,18.43,1,1.0,0,1.0,0,1.0,0,1.0,0,1.0
1247,'1',84.034,17.045,44.66,-31.26,1.04,0,105.28,0.0,1.0,0.0,0.0,1.0,1,100.0,87.73,19.92,1,1.0,0,1.0,0,1.0,0,1.0,0,1.0
1248,'1',84.034,17.747,44.66,-31.26,1.04,0,105.28,0.0,1.0,0.0,0.0,1.0,1,100.0,87.73,20.01,1,1.0,0,1.0,0,1.0,0,1.0,0,1.0
1249,'1',84.034,16.672,44.66,-31.26,1.04,0,105.28,0.0,1.0,0.0,0.0,1.0,1,100.0,87.73,18.13,1,1.0,0,1.0,0,1.0,0,1.0,0,1.0
1253,'1',1.149,0.242,0.36,-0.36,1.04,0,1.44,0.0,1.0,0.0,0.0,1.0,1,100.0,1.2,0.0,1,1.0,0,1.0,0,1.0,0,1.0,0,1.0
1253,'2',1.149,0.242,0.36,-0.36,1.04,0,1.44,0.0,1.0,0.0,0.0,1.0,1,100.0,1.2,0.0,1,1.0,0,1.0,0,1.0,0,1.0,0,1.0
1256,'1',2.067,0.62,0.62,-0.62,1.04,0,12.6,0.0,1.0,0.0,0.0,1.0,1,100.0,2.067,0.0,1,1.0,0,1.0,0,1.0,0,1.0,1,1.0
1259,'1',64.024,9.794,34.02,-23.81,1.04,0,80.208,0.0,1.0,0.0,0.0,1.0,1,100.0,66.84,25.01,1,1.0,0,1.0,0,1.0,0,1.0,0,1.0
1260,'1',64.024,8.067,34.02,-23.81,1.04,0,80.208,0.0,1.0,0.0,0.0,1.0,1,100.0,66.84,8.44,1,1.0,0,1.0,0,1.0,0,1.0,0,1.0
1261,'1',64.024,8.927,34.02,-23.81,1.04,0,80.208,0.0,1.0,0.0,0.0,1.0,1,100.0,66.84,13.17,1,1.0,0,1.0,0,1.0,0,1.0,0,1.0
1262,'1',0.0,0.0,34.02,-23.81,1.04,0,80.208,0.0,1.0,0.0,0.0,1.0,0,100.0,66.84,21.55,1,1.0,0,1.0,0,1.0,0,1.0,0,1.0
1263,'1',64.024,7.128,34.02,-23.81,1.04,0,80.208,0.0,1.0,0.0,0.0,1.0,1,100.0,66.84,29.81,1,1.0,0,1.0,0,1.0,0,1.0,0,1.0
1268,'1',497.076,26.759,317.49,-222.24,1.04,1265,817.56,0.0,1.0,0.0,0.0,1.0,1,100.0,681.3,282.42,1,1.0,0,1.0,0,1.0,0,1.0,0,1.0
1269,'1',426.946,26.759,317.49,-222.24,1.04,1265,817.56,0.0,1.0,0.0,0.0,1.0,1,100.0,681.3,212.29,1,1.0,0,1.0,0,1.0,0,1.0,0,1.0
1271,'1',1.437,0.7,0.7,-0.49,1.04,0,1.8,0.0,1.0,0.0,0.0,1.0,1,100.0,1.5,0.59,1,1.0,0,1.0,0,1.0,0,1.0,0,1.0
1271,'2',0.0,0.0,2.1,-1.47,1.04,0,5.4,0.0,1.0,0.0,0.0,1.0,0,100.0,4.5,1.87,1,1.0,0,1.0,0,1.0,0,1.0,0,1.0
1273,'1',2.04,1.08,1.08,-0.76,1.04,0,2.55,0.0,1.0,0.0,0.0,1.0,1,100.0,2.13,0.88,1,1.0,0,1.0,0,1.0,0,1.0,0,1.0
1273,'2',2.04,1.08,1.08,-0.76,1.04,0,2.55,0.0,1.0,0.0,0.0,1.0,1,100.0,2.13,0.56,1,1.0,0,1.0,0,1.0,0,1.0,0,1.0
1274,'1',2.04,1.08,1.08,-0.76,1.04,0,2.55,0.0,1.0,0.0,0.0,1.0,1,100.0,2.13,0.49,1,1.0,0,1.0,0,1.0,0,1.0,0,1.0
1275,'1',2.04,1.08,1.08,-0.76,1.04,0,2.55,0.0,1.0,0.0,0.0,1.0,1,100.0,2.13,1.06,1,1.0,0,1.0,0,1.0,0,1.0,0,1.0
1278,'1',25.862,13.74,13.74,-9.62,1.04,0,32.4,0.0,1.0,0.0,0.0,1.0,1,100.0,27.0,4.91,1,1.0,0,1.0,0,1.0,0,1.0,0,1.0
1281,'1',6.037,3.68,3.68,-2.58,1.04,0,9.48,0.0,1.0,0.0,0.0,1.0,1,100.0,7.9,3.55,1,1.0,0,1.0,0,1.0,0,1.0,0,1.0
1284,'1',0.229,0.069,0.069,-0.069,1.04,0,1.8,0.0,1.0,0.0,0.0,1.0,1,100.0,0.229,0.0,1,1.0,0,1.0,0,1.0,0,1.0,1,1.0
1284,'2',0.509,0.153,0.153,-0.153,1.04,0,1.8,0.0,1.0,0.0,0.0,1.0,1,100.0,0.509,0.0,1,1.0,0,1.0,0,1.0,0,1.0,1,1.0
1287,'1',31.294,0.142,16.63,-11.64,1.04,0,39.2,0.0,1.0,0.0,0.0,1.0,1,100.0,32.67,4.0,1,1.0,0,1.0,0,1.0,0,1.0,0,1.0
1287,'2',31.294,0.142,16.63,-11.64,1.04,0,39.2,0.0,1.0,0.0,0.0,1.0,1,100.0,32.67,5.16,1,1.0,0,1.0,0,1.0,0,1.0,0,1.0
1288,'1',31.294,0.54,16.63,-11.64,1.04,0,39.2,0.0,1.0,0.0,0.0,1.0,1,100.0,32.67,6.36,1,1.0,0,1.0,0,1.0,0,1.0,0,1.0
1292,'1',84.722,-25.762,53.29,-37.3,1.04,0,137.22,0.0,1.0,0.0,0.0,1.0,1,100.0,114.35,48.69,1,1.0,0,1.0,0,1.0,0,1.0,0,1.0
1293,'1',64.242,-17.429,53.29,-37.3,1.04,0,137.22,0.0,1.0,0.0,0.0,1.0,1,100.0,114.35,28.21,1,1.0,0,1.0,0,1.0,0,1.0,0,1.0
1297,'1',3.927,0.814,2.09,-1.46,1.04,0,4.92,0.0,1.0,0.0,0.0,1.0,1,100.0,4.1,0.92,1,1.0,0,1.0,0,1.0,0,1.0,0,1.0
1297,'2',3.927,0.814,2.09,-1.46,1.04,0,4.92,0.0,1.0,0.0,0.0,1.0,1,100.0,4.1,1.14,1,1.0,0,1.0,0,1.0,0,1.0,0,1.0
1298,'1',3.927,0.267,2.09,-1.46,1.04,0,4.92,0.0,1.0,0.0,0.0,1.0,1,100.0,4.1,0.81,1,1.0,0,1.0,0,1.0,0,1.0,0,1.0
1298,'2',3.927,0.267,2.09,-1.46,1.04,0,4.92,0.0,1.0,0.0,0.0,1.0,1,100.0,4.1,1.13,1,1.0,0,1.0,0,1.0,0,1.0,0,1.0
1299,'1',3.927,0.337,2.09,-1.46,1.04,0,4.92,0.0,1.0,0.0,0.0,1.0,1,100.0,4.1,1.8,1,1.0,0,1.0,0,1.0,0,1.0,0,1.0
1299,'2',3.927,0.337,2.09,-1.46,1.04,0,4.92,0.0,1.0,0.0,0.0,1.0,1,100.0,4.1,1.08,1,1.0,0,1.0,0,1.0,0,1.0,0,1.0
1300,'1',1.437,0.103,0.45,-0.45,1.04,0,1.8,0.0,1.0,0.0,0.0,1.0,1,100.0,1.5,0.0,1,1.0,0,1.0,0,1.0,0,1.0,0,1.0
1300,'2',21.552,0.103,6.467,-6.467,1.04,0,27.0,0.0,1.0,0.0,0.0,1.0,1,100.0,21.556,0.0,1,1.0,0,1.0,0,1.0,0,1.0,0,1.0
1303,'1',0.623,0.003,0.3,-0.21,1.04,0,0.78,0.0,1.0,0.0,0.0,1.0,1,100.0,0.65,0.28,1,1.0,0,1.0,0,1.0,0,1.0,0,1.0
1303,'2',0.623,0.003,0.3,-0.21,1.04,0,0.78,0.0,1.0,0.0,0.0,1.0,1,100.0,0.65,0.12,1,1.0,0,1.0,0,1.0,0,1.0,0,1.0
1304,'1',0.575,-0.01,0.28,-0.2,1.04,0,0.72,0.0,1.0,0.0,0.0,1.0,1,100.0,0.6,0.1,1,1.0,0,1.0,0,1.0,0,1.0,0,1.0
1304,'2',0.258,-0.01,0.13,-0.09,1.04,0,0.33,0.0,1.0,0.0,0.0,1.0,1,100.0,0.27,0.01,1,1.0,0,1.0,0,1.0,0,1.0,0,1.0
1305,'1',0.258,-0.001,0.13,-0.09,1.04,0,0.33,0.0,1.0,0.0,0.0,1.0,1,100.0,0.27,0.01,1,1.0,0,1.0,0,1.0,0,1.0,0,1.0
1305,'2',0.258,-0.001,0.13,-0.09,1.04,0,0.33,0.0,1.0,0.0,0.0,1.0,1,100.0,0.27,0.01,1,1.0,0,1.0,0,1.0,0,1.0,0,1.0
1306,'1',0.028,-0.0,0.03,-0.02,1.04,0,0.33,0.0,1.0,0.0,0.0,1.0,1,100.0,0.04,0.01,1,1.0,0,1.0,0,1.0,0,1.0,0,1.0
1310,'1',0.747,0.4,0.4,-0.28,1.04,0,0.94,0.0,1.0,0.0,0.0,1.0,1,100.0,0.78,0.11,1,1.0,0,1.0,0,1.0,0,1.0,0,1.0
1310,'2',0.747,0.4,0.4,-0.28,1.04,0,0.94,0.0,1.0,0.0,0.0,1.0,1,100.0,0.78,0.1,1,1.0,0,1.0,0,1.0,0,1.0,0,1.0
1311,'1',0.747,0.143,0.4,-0.28,1.04,0,0.94,0.0,1.0,0.0,0.0,1.0,1,100.0,0.78,0.39,1,1.0,0,1.0,0,1.0,0,1.0,0,1.0
1311,'2',0.747,0.143,0.4,-0.28,1.04,0,0.94,0.0,1.0,0.0,0.0,1.0,1,100.0,0.78,0.12,1,1.0,0,1.0,0,1.0,0,1.0,0,1.0
1312,'1',0.747,0.222,0.4,-0.28,1.04,0,0.94,0.0,1.0,0.0,0.0,1.0,1,100.0,0.78,0.16,1,1.0,0,1.0,0,1.0,0,1.0,0,1.0
1312,'2',0.747,0.222,0.4,-0.28,1.04,0,0.94,0.0,1.0,0.0,0.0,1.0,1,100.0,0.78,0.21,1,1.0,0,1.0,0,1.0,0,1.0,0,1.0
1315,'1',57.951,16.417,30.79,-21.55,1.04,0,72.6,0.0,1.0,0.0,0.0,1.0,1,100.0,60.5,25.17,1,1.0,0,1.0,0,1.0,0,1.0,0,1.0
1319,'1',78.9,-29.34,41.92,-29.34,1.04,0,98.84,0.0,1.0,0.0,0.0,1.0,1,100.0,82.37,10.07,1,1.0,0,1.0,0,1.0,0,1.0,0,1.0
1320,'1',0.0,0.0,41.92,-29.34,1.04,0,98.84,0.0,1.0,0.0,0.0,1.0,0,100.0,82.37,11.18,1,1.0,0,1.0,0,1.0,0,1.0,0,1.0
1321,'1',78.9,-29.34,41.92,-29.34,1.04,0,98.84,0.0,1.0,0.0,0.0,1.0,1,100.0,82.37,14.53,1,1.0,0,1.0,0,1.0,0,1.0,0,1.0
1324,'1',3.353,1.63,1.63,-1.14,1.04,0,4.2,0.0,1.0,0.0,0.0,1.0,1,100.0,3.5,1.01,1,1.0,0,1.0,0,1.0,0,1.0,0,1.0
1326,'1',5.324,2.109,2.109,-2.109,1.04,0,48.6,0.0,1.0,0.0,0.0,1.0,1,100.0,7.03,0.0,1,1.0,0,1.0,0,1.0,0,1.0,1,1.0
1329,'1',0.385,0.115,0.115,-0.115,1.04,0,2.28,0.0,1.0,0.0,0.0,1.0,1,100.0,0.385,0.0,1,1.0,0,1.0,0,1.0,0,1.0,1,1.0
1332,'1',0.766,0.37,0.37,-0.26,1.04,0,0.96,0.0,1.0,0.0,0.0,1.0,1,100.0,0.8,0.1,1,1.0,0,1.0,0,1.0,0,1.0,0,1.0
1332,'2',0.766,0.37,0.37,-0.26,1.04,0,0.96,0.0,1.0,0.0,0.0,1.0,1,100.0,0.8,0.39,1,1.0,0,1.0,0,1.0,0,1.0,0,1.0
1333,'1',0.766,0.163,0.37,-0.26,1.04,0,0.96,0.0,1.0,0.0,0.0,1.0,1,100.0,0.8,0.3,1,1.0,0,1.0,0,1.0,0,1.0,0,1.0
1338,'1',30.714,1.595,20.19,-14.13,1.04,0,52.0,0.0,1.0,0.0,0.0,1.0,1,100.0,43.33,17.06,1,1.0,0,1.0,0,1.0,0,1.0,0,1.0
1339,'1',27.284,-8.917,20.19,-14.13,1.04,0,52.0,0.0,1.0,0.0,0.0,1.0,1,100.0,43.33,13.63,1,1.0,0,1.0,0,1.0,0,1.0,0,1.0
1339,'2',0.0,0.0,20.19,-14.13,1.04,0,52.0,0.0,1.0,0.0,0.0,1.0,0,100.0,43.33,10.32,1,1.0,0,1.0,0,1.0,0,1.0,0,1.0
1341,'1',1.772,-0.66,0.94,-0.66,1.04,0,2.22,0.0,1.0,0.0,0.0,1.0,1,100.0,1.85,0.6,1,1.0,0,1.0,0,1.0,0,1.0,0,1.0
1342,'1',0.862,-0.009,0.46,-0.32,1.04,0,1.08,0.0,1.0,0.0,0.0,1.0,1,100.0,0.9,0.37,1,1.0,0,1.0,0,1.0,0,1.0,0,1.0
1342,'2',1.772,-0.009,0.94,-0.66,1.04,0,2.22,0.0,1.0,0.0,0.0,1.0,1,100.0,1.85,0.45,1,1.0,0,1.0,0,1.0,0,1.0,0,1.0
1342,'3',1.772,-0.009,0.94,-0.66,1.04,0,2.22,0.0,1.0,0.0,0.0,1.0,1,100.0,1.85,0.55,1,1.0,0,1.0,0,1.0,0,1.0,0,1.0
1342,'4',1.772,-0.009,0.94,-0.66,1.04,0,2.22,0.0,1.0,0.0,0.0,1.0,1,100.0,1.85,0.64,1,1.0,0,1.0,0,1.0,0,1.0,0,1.0
1345,'1',5.747,3.05,3.05,-2.14,1.04,0,7.2,0.0,1.0,0.0,0.0,1.0,1,100.0,6.0,2.01,1,1.0,0,1.0,0,1.0,0,1.0,0,1.0
1347,'1',0.0,0.0,26.42,-18.49,1.04,0,68.04,0.0,1.0,0.0,0.0,1.0,0,100.0,56.7,28.0,1,1.0,0,1.0,0,1.0,0,1.0,0,1.0
1350,'1',38.315,8.769,20.36,-14.25,1.04,0,48.0,0.0,1.0,0.0,0.0,1.0,1,100.0,40.0,5.01,1,1.0,0,1.0,0,1.0,0,1.0,0,1.0
1352,'1',0.0,0.0,30.29,-21.2,1.04,0,78.0,0.0,1.0,0.0,0.0,1.0,0,100.0,65.0,16.8,1,1.0,0,1.0,0,1.0,0,1.0,0,1.0
1352,'2',62.261,30.29,30.29,-21.2,1.04,0,78.0,0.0,1.0,0.0,0.0,1.0,1,100.0,65.0,8.77,1,1.0,0,1.0,0,1.0,0,1.0,0,1.0
1354,'1',37.212,28.499,33.27,-23.29,1.04,0,85.68,0.0,1.0,0.0,0.0,1.0,1,100.0,71.4,14.72,1,1.0,0,1.0,0,1.0,0,1.0,0,1.0
1357,'1',54.311,21.284,28.86,-20.2,1.04,0,68.04,0.0,1.0,0.0,0.0,1.0,1,100.0,56.7,27.69,1,1.0,0,1.0,0,1.0,0,1.0,0,1.0
1361,'1',47.635,11.085,25.31,-17.72,1.04,0,59.68,0.0,1.0,0.0,0.0,1.0,1,100.0,49.73,6.58,1,1.0,0,1.0,0,1.0,0,1.0,0,1.0
1362,'1',47.635,11.684,25.31,-17.72,1.04,0,59.68,0.0,1.0,0.0,0.0,1.0,1,100.0,49.73,7.85,1,1.0,0,1.0,0,1.0,0,1.0,0,1.0
1362,'2',47.635,11.684,25.31,-17.72,1.04,0,59.68,0.0,1.0,0.0,0.0,1.0,1,100.0,49.73,23.11,1,1.0,0,1.0,0,1.0,0,1.0,0,1.0
1365,'1',1.533,0.81,0.81,-0.57,1.04,0,1.92,0.0,1.0,0.0,0.0,1.0,1,100.0,1.6,0.48,1,1.0,0,1.0,0,1.0,0,1.0,0,1.0
1365,'2',1.533,0.81,0.81,-0.57,1.04,0,1.92,0.0,1.0,0.0,0.0,1.0,1,100.0,1.6,0.21,1,1.0,0,1.0,0,1.0,0,1.0,0,1.0
1365,'3',1.533,0.81,0.81,-0.57,1.04,0,1.92,0.0,1.0,0.0,0.0,1.0,1,100.0,1.6,0.69,1,1.0,0,1.0,0,1.0,0,1.0,0,1.0
1365,'4',1.533,0.81,0.81,-0.57,1.04,0,1.92,0.0,1.0,0.0,0.0,1.0,1,100.0,1.6,0.56,1,1.0,0,1.0,0,1.0,0,1.0,0,1.0
1365,'5',1.533,0.81,0.81,-0.57,1.04,0,1.92,0.0,1.0,0.0,0.0,1.0,1,100.0,1.6,0.7,1,1.0,0,1.0,0,1.0,0,1.0,0,1.0
1365,'6',1.533,0.81,0.81,-0.57,1.04,0,1.92,0.0,1.0,0.0,0.0,1.0,1,100.0,1.6,0.38,1,1.0,0,1.0,0,1.0,0,1.0,0,1.0
1368,'1',1.916,1.02,1.02,-0.71,1.04,0,2.4,0.0,1.0,0.0,0.0,1.0,1,100.0,2.0,0.31,1,1.0,0,1.0,0,1.0,0,1.0,0,1.0
1368,'2',1.916,1.02,1.02,-0.71,1.04,0,2.4,0.0,1.0,0.0,0.0,1.0,1,100.0,2.0,0.95,1,1.0,0,1.0,0,1.0,0,1.0,0,1.0
1370,'1',2.619,2.33,2.33,-1.63,1.04,0,6.0,0.0,1.0,0.0,0.0,1.0,1,100.0,5.0,1.05,1,1.0,0,1.0,0,1.0,0,1.0,0,1.0
1372,'1',3.477,-0.043,1.69,-1.18,1.04,0,4.36,0.0,1.0,0.0,0.0,1.0,1,100.0,3.63,1.36,1,1.0,0,1.0,0,1.0,0,1.0,0,1.0
1372,'2',3.477,-0.043,1.69,-1.18,1.04,0,4.36,0.0,1.0,0.0,0.0,1.0,1,100.0,3.63,1.21,1,1.0,0,1.0,0,1.0,0,1.0,0,1.0
1373,'1',0.096,0.05,0.05,-0.03,1.04,0,0.12,0.0,1.0,0.0,0.0,1.0,1,100.0,0.1,0.01,1,1.0,0,1.0,0,1.0,0,1.0,0,1.0
1373,'2',3.477,0.81,1.69,-1.18,1.04,0,4.36,0.0,1.0,0.0,0.0,1.0,1,100.0,3.63,1.03,1,1.0,0,1.0,0,1.0,0,1.0,0,1.0
1373,'3',3.477,0.81,1.69,-1.18,1.04,0,4.36,0.0,1.0,0.0,0.0,1.0,1,100.0,3.63,1.08,1,1.0,0,1.0,0,1.0,0,1.0,0,1.0
1373,'4',3.477,0.81,1.69,-1.18,1.04,0,4.36,0.0,1.0,0.0,0.0,1.0,1,100.0,3.63,0.76,1,1.0,0,1.0,0,1.0,0,1.0,0,1.0
1373,'5',3.477,0.81,1.69,-1.18,1.04,0,4.36,0.0,1.0,0.0,0.0,1.0,1,100.0,3.63,1.39,1,1.0,0,1.0,0,1.0,0,1.0,0,1.0
1377,'1',480.85,284.584,342.86,-240.0,1.04,1375,602.4,0.0,1.0,0.0,0.0,1.0,1,100.0,502.0,61.46,1,1.0,0,1.0,0,1.0,0,1.0,0,1.0
1380,'1',6.742,-2.022,2.022,-2.022,1.04,0,97.2,0.0,1.0,0.0,0.0,1.0,1,100.0,6.742,0.0,1,1.0,0,1.0,0,1.0,0,1.0,1,1.0
1382,'1',3.276,-0.458,1.74,-1.22,1.04,0,4.1,0.0,1.0,0.0,0.0,1.0,1,100.0,3.42,0.85,1,1.0,0,1.0,0,1.0,0,1.0,0,1.0
1382,'2',3.276,-0.458,1.74,-1.22,1.04,0,4.1,0.0,1.0,0.0,0.0,1.0,1,100.0,3.42,0.98,1,1.0,0,1.0,0,1.0,0,1.0,0,1.0
1382,'3',3.276,-0.458,1.74,-1.22,1.04,0,4.1,0.0,1.0,0.0,0.0,1.0,1,100.0,3.42,1.19,1,1.0,0,1.0,0,1.0,0,1.0,0,1.0
1382,'4',3.276,-0.458,1.74,-1.22,1.04,0,4.1,0.0,1.0,0.0,0.0,1.0,1,100.0,3.42,1.34,1,1.0,0,1.0,0,1.0,0,1.0,0,1.0
1382,'5',3.276,-0.458,1.74,-1.22,1.04,0,4.1,0.0,1.0,0.0,0.0,1.0,1,100.0,3.42,1.07,1,1.0,0,1.0,0,1.0,0,1.0,0,1.0
1382,'6',3.276,-0.458,1.74,-1.22,1.04,0,4.1,0.0,1.0,0.0,0.0,1.0,1,100.0,3.42,1.64,1,1.0,0,1.0,0,1.0,0,1.0,0,1.0
1385,'1',11.168,-0.168,3.35,-3.35,1.04,0,15.72,0.0,1.0,0.0,0.0,1.0,1,100.0,11.168,0.0,1,1.0,0,1.0,0,1.0,0,1.0,0,1.0
1386,'1',11.181,-0.062,3.354,-3.354,1.04,0,15.72,0.0,1.0,0.0,0.0,1.0,1,100.0,11.181,0.0,1,1.0,0,1.0,0,1.0,0,1.0,0,1.0
1390,'1',155.552,46.757,87.8,-61.46,1.04,1388,207.0,0.0,1.0,0.0,0.0,1.0,1,100.0,172.5,49.53,1,1.0,0,1.0,0,1.0,0,1.0,0,1.0
1392,'1',165.232,46.757,87.8,-61.46,1.04,1388,100.0,0.0,1.0,0.0,0.0,1.0,1,100.0,172.5,77.69,1,1.0,0,1.0,0,1.0,0,1.0,0,1.0
1396,'1',2.473,0.742,0.742,-0.742,1.04,0,3.36,0.0,1.0,0.0,0.0,1.0,1,100.0,2.473,0.0,1,1.0,0,1.0,0,1.0,0,1.0,0,1.0
1397,'1',2.305,0.691,0.691,-0.691,1.04,0,3.36,0.0,1.0,0.0,0.0,1.0,1,100.0,2.305,0.0,1,1.0,0,1.0,0,1.0,0,1.0,0,1.0
1397,'2',2.411,0.723,0.723,-0.723,1.04,0,3.36,0.0,1.0,0.0,0.0,1.0,1,100.0,2.411,0.0,1,1.0,0,1.0,0,1.0,0,1.0,0,1.0
1398,'1',0.068,0.021,0.021,-0.021,1.04,0,0.12,0.0,1.0,0.0,0.0,1.0,1,100.0,0.068,0.0,1,1.0,0,1.0,0,1.0,0,1.0,0,1.0
1398,'2',0.096,0.025,0.03,-0.03,1.04,0,0.12,0.0,1.0,0.0,0.0,1.0,1,100.0,0.1,0.0,1,1.0,0,1.0,0,1.0,0,1.0,0,1.0
1400,'1',21.073,-2.395,11.2,-7.84,1.04,0,26.4,0.0,1.0,0.0,0.0,1.0,1,100.0,22.0,2.69,1,1.0,0,1.0,0,1.0,0,1.0,0,1.0
1402,'1',1.168,0.62,0.62,-0.43,1.04,0,1.47,0.0,1.0,0.0,0.0,1.0,1,100.0,1.22,0.36,1,1.0,0,1.0,0,1.0,0,1.0,0,1.0
1402,'2',1.168,0.62,0.62,-0.43,1.04,0,1.47,0.0,1.0,0.0,0.0,1.0,1,100.0,1.22,0.15,1,1.0,0,1.0,0,1.0,0,1.0,0,1.0
1402,'3',1.168,0.62,0.62,-0.43,1.04,0,1.47,0.0,1.0,0.0,0.0,1.0,1,100.0,1.22,0.35,1,1.0,0,1.0,0,1.0,0,1.0,0,1.0
1402,'4',1.168,0.62,0.62,-0.43,1.04,0,1.47,0.0,1.0,0.0,0.0,1.0,1,100.0,1.22,0.16,1,1.0,0,1.0,0,1.0,0,1.0,0,1.0
1405,'1',1.389,0.68,0.68,-0.48,1.04,0,1.74,0.0,1.0,0.0,0.0,1.0,1,100.0,1.45,0.18,1,1.0,0,1.0,0,1.0,0,1.0,0,1.0
1405,'2',1.389,0.68,0.68,-0.48,1.04,0,1.74,0.0,1.0,0.0,0.0,1.0,1,100.0,1.45,0.72,1,1.0,0,1.0,0,1.0,0,1.0,0,1.0
1406,'1',1.389,0.68,0.68,-0.48,1.04,0,1.74,0.0,1.0,0.0,0.0,1.0,1,100.0,1.45,0.19,1,1.0,0,1.0,0,1.0,0,1.0,0,1.0
1406,'2',1.389,0.68,0.68,-0.48,1.04,0,1.74,0.0,1.0,0.0,0.0,1.0,1,100.0,1.45,0.63,1,1.0,0,1.0,0,1.0,0,1.0,0,1.0
1409,'1',1.801,0.82,0.95,-0.66,1.04,0,2.25,0.0,1.0,0.0,0.0,1.0,1,100.0,1.88,0.93,1,1.0,0,1.0,0,1.0,0,1.0,0,1.0
1410,'1',1.801,0.95,0.95,-0.66,1.04,0,2.25,0.0,1.0,0.0,0.0,1.0,1,100.0,1.88,0.58,1,1.0,0,1.0,0,1.0,0,1.0,0,1.0
1410,'2',1.801,0.95,0.95,-0.66,1.04,0,2.25,0.0,1.0,0.0,0.0,1.0,1,100.0,1.88,0.77,1,1.0,0,1.0,0,1.0,0,1.0,0,1.0
1411,'1',1.801,0.95,0.95,-0.66,1.04,0,2.25,0.0,1.0,0.0,0.0,1.0,1,100.0,1.88,0.66,1,1.0,0,1.0,0,1.0,0,1.0,0,1.0
1413,'1',68.068,3.495,60.09,-42.06,1.04,0,154.728,0.0,1.0,0.0,0.0,1.0,1,100.0,128.94,27.44,1,1.0,0,1.0,0,1.0,0,1.0,0,1.0
1414,'1',97.858,3.632,60.09,-42.06,1.04,0,154.728,0.0,1.0,0.0,0.0,1.0,1,100.0,128.94,57.23,1,1.0,0,1.0,0,1.0,0,1.0,0,1.0
1415,'1',89.798,4.37,60.09,-42.06,1.04,0,154.728,0.0,1.0,0.0,0.0,1.0,1,100.0,128.94,49.17,1,1.0,0,1.0,0,1.0,0,1.0,0,1.0
1416,'1',97.778,28.983,60.09,-42.06,1.037,1412,154.728,0.0,1.0,0.0,0.0,1.0,1,100.0,128.94,57.15,1,1.0,0,1.0,0,1.0,0,1.0,0,1.0
1417,'1',73.078,3.676,60.09,-42.06,1.04,0,154.728,0.0,1.0,0.0,0.0,1.0,1,100.0,128.94,32.45,1,1.0,0,1.0,0,1.0,0,1.0,0,1.0
1419,'1',0.317,-0.014,0.15,-0.1,1.04,0,0.39,0.0,1.0,0.0,0.0,1.0,1,100.0,0.33,0.01,1,1.0,0,1.0,0,1.0,0,1.0,0,1.0
1419,'2',0.317,-0.014,0.15,-0.1,1.04,0,0.39,0.0,1.0,0.0,0.0,1.0,1,100.0,0.33,0.01,1,1.0,0,1.0,0,1.0,0,1.0,0,1.0
1419,'3',0.317,-0.014,0.15,-0.1,1.04,0,0.39,0.0,1.0,0.0,0.0,1.0,1,100.0,0.33,0.01,1,1.0,0,1.0,0,1.0,0,1.0,0,1.0
1419,'4',0.317,-0.014,0.15,-0.1,1.04,0,0.39,0.0,1.0,0.0,0.0,1.0,1,100.0,0.33,0.01,1,1.0,0,1.0,0,1.0,0,1.0,0,1.0
1419,'5',0.623,-0.014,0.3,-0.21,1.04,0,0.78,0.0,1.0,0.0,0.0,1.0,1,100.0,0.65,0.17,1,1.0,0,1.0,0,1.0,0,1.0,0,1.0
1419,'6',0.623,-0.014,0.3,-0.21,1.04,0,0.78,0.0,1.0,0.0,0.0,1.0,1,100.0,0.65,0.13,1,1.0,0,1.0,0,1.0,0,1.0,0,1.0
1422,'1',45.595,-5.663,24.23,-16.96,1.04,0,57.12,0.0,1.0,0.0,0.0,1.0,1,100.0,47.6,16.55,1,1.0,0,1.0,0,1.0,0,1.0,0,1.0
1422,'2',45.595,-5.663,24.23,-16.96,1.04,0,57.12,0.0,1.0,0.0,0.0,1.0,1,100.0,47.6,17.53,1,1.0,0,1.0,0,1.0,0,1.0,0,1.0
1422,'3',45.595,-5.663,24.23,-16.96,1.04,0,57.12,0.0,1.0,0.0,0.0,1.0,1,100.0,47.6,17.63,1,1.0,0,1.0,0,1.0,0,1.0,0,1.0
1425,'1',1.149,0.56,0.56,-0.39,1.04,0,1.44,0.0,1.0,0.0,0.0,1.0,1,100.0,1.2,0.49,1,1.0,0,1.0,0,1.0,0,1.0,0,1.0
1425,'2',1.149,0.56,0.56,-0.39,1.04,0,1.44,0.0,1.0,0.0,0.0,1.0,1,100.0,1.2,0.48,1,1.0,0,1.0,0,1.0,0,1.0,0,1.0
1425,'3',0.0,0.0,0.56,-0.39,1.04,0,1.44,0.0,1.0,0.0,0.0,1.0,0,100.0,1.2,0.42,1,1.0,0,1.0,0,1.0,0,1.0,0,1.0
1428,'1',18.678,5.724,9.93,-6.95,1.04,0,23.4,0.0,1.0,0.0,0.0,1.0,1,100.0,19.5,2.17,1,1.0,0,1.0,0,1.0,0,1.0,0,1.0
1428,'2',18.678,5.724,9.93,-6.95,1.04,0,23.4,0.0,1.0,0.0,0.0,1.0,1,100.0,19.5,4.7,1,1.0,0,1.0,0,1.0,0,1.0,0,1.0
1431,'1',2.299,1.12,1.12,-0.78,1.04,0,2.88,0.0,1.0,0.0,0.0,1.0,1,100.0,2.4,0.88,1,1.0,0,1.0,0,1.0,0,1.0,0,1.0
1431,'2',2.299,1.12,1.12,-0.78,1.04,0,2.88,0.0,1.0,0.0,0.0,1.0,1,100.0,2.4,0.71,1,1.0,0,1.0,0,1.0,0,1.0,0,1.0
1432,'1',2.299,1.12,1.12,-0.78,1.04,0,2.88,0.0,1.0,0.0,0.0,1.0,1,100.0,2.4,0.62,1,1.0,0,1.0,0,1.0,0,1.0,0,1.0
1432,'2',2.299,1.12,1.12,-0.78,1.04,0,2.88,0.0,1.0,0.0,0.0,1.0,1,100.0,2.4,0.68,1,1.0,0,1.0,0,1.0,0,1.0,0,1.0
1433,'1',2.299,1.12,1.12,-0.78,1.04,0,2.88,0.0,1.0,0.0,0.0,1.0,1,100.0,2.4,0.28,1,1.0,0,1.0,0,1.0,0,1.0,0,1.0
1433,'2',0.603,0.3,0.3,-0.21,1.04,0,0.76,0.0,1.0,0.0,0.0,1.0,1,100.0,0.63,0.08,1,1.0,0,1.0,0,1.0,0,1.0,0,1.0
1434,'1',0.603,0.3,0.3,-0.21,1.04,0,0.76,0.0,1.0,0.0,0.0,1.0,1,100.0,0.63,0.19,1,1.0,0,1.0,0,1.0,0,1.0,0,1.0
1434,'2',0.603,0.3,0.3,-0.21,1.04,0,0.76,0.0,1.0,0.0,0.0,1.0,1,100.0,0.63,0.31,1,1.0,0,1.0,0,1.0,0,1.0,0,1.0
1439,'1',8.261,2.17,2.478,-2.478,1.04,0,12.96,0.0,1.0,0.0,0.0,1.0,1,100.0,8.261,0.0,1,1.0,0,1.0,0,1.0,0,1.0,0,1.0
1440,'1',10.345,1.457,3.24,-3.24,1.04,0,12.96,0.0,1.0,0.0,0.0,1.0,1,100.0,10.8,0.0,1,1.0,0,1.0,0,1.0,0,1.0,0,1.0
1442,'1',6.42,-1.926,1.926,-1.926,1.04,0,87.72,0.0,1.0,0.0,0.0,1.0,1,100.0,6.42,0.0,1,1.0,0,1.0,0,1.0,0,1.0,1,1.0
1446,'1',4.31,1.258,2.29,-1.6,1.04,0,5.4,0.0,1.0,0.0,0.0,1.0,1,100.0,4.5,1.16,1,1.0,0,1.0,0,1.0,0,1.0,0,1.0
1446,'2',4.31,1.258,2.29,-1.6,1.04,0,5.4,0.0,1.0,0.0,0.0,1.0,1,100.0,4.5,0.52,1,1.0,0,1.0,0,1.0,0,1.0,0,1.0
1448,'1',47.893,7.261,14.679,-14.679,1.04,0,60.0,0.0,1.0,0.0,0.0,1.0,1,100.0,48.929,0.0,1,1.0,0,1.0,0,1.0,0,1.0,0,1.0
1453,'1',1.389,0.521,0.68,-0.48,1.04,0,1.74,0.0,1.0,0.0,0.0,1.0,1,100.0,1.45,0.32,1,1.0,0,1.0,0,1.0,0,1.0,0,1.0
1453,'2',1.389,0.521,0.68,-0.48,1.04,0,1.74,0.0,1.0,0.0,0.0,1.0,1,100.0,1.45,0.18,1,1.0,0,1.0,0,1.0,0,1.0,0,1.0
1454,'1',1.389,0.68,0.68,-0.48,1.04,0,1.74,0.0,1.0,0.0,0.0,1.0,1,100.0,1.45,0.44,1,1.0,0,1.0,0,1.0,0,1.0,0,1.0
1454,'2',1.389,0.68,0.68,-0.48,1.04,0,1.74,0.0,1.0,0.0,0.0,1.0,1,100.0,1.45,0.38,1,1.0,0,1.0,0,1.0,0,1.0,0,1.0
1456,'1',12.891,3.867,3.867,-3.867,1.04,0,71.28,0.0,1.0,0.0,0.0,1.0,1,100.0,12.891,0.0,1,1.0,0,1.0,0,1.0,0,1.0,1,1.0
1460,'1',0.766,0.37,0.37,-0.26,1.04,0,0.96,0.0,1.0,0.0,0.0,1.0,1,100.0,0.8,0.18,1,1.0,0,1.0,0,1.0,0,1.0,0,1.0
1460,'2',0.623,0.3,0.3,-0.21,1.04,0,0.78,0.0,1.0,0.0,0.0,1.0,1,100.0,0.65,0.25,1,1.0,0,1.0,0,1.0,0,1.0,0,1.0
1461,'1',0.623,0.062,0.3,-0.21,1.04,0,0.78,0.0,1.0,0.0,0.0,1.0,1,100.0,0.65,0.25,1,1.0,0,1.0,0,1.0,0,1.0,0,1.0
1464,'1',10.345,0.188,3.24,-3.24,1.04,0,12.96,0.0,1.0,0.0,0.0,1.0,1,100.0,10.8,0.0,1,1.0,0,1.0,0,1.0,0,1.0,0,1.0
1464,'2',10.345,0.188,3.24,-3.24,1.04,0,12.96,0.0,1.0,0.0,0.0,1.0,1,100.0,10.8,0.0,1,1.0,0,1.0,0,1.0,0,1.0,0,1.0
1467,'1',6.431,1.929,1.929,-1.929,1.04,0,48.0,0.0,1.0,0.0,0.0,1.0,1,100.0,6.431,0.0,1,1.0,0,1.0,0,1.0,0,1.0,1,1.0
1469,'1',2.778,1.35,1.35,-0.94,1.04,0,3.48,0.0,1.0,0.0,0.0,1.0,1,100.0,2.9,0.33,1,1.0,0,1.0,0,1.0,0,1.0,0,1.0
1473,'1',85.684,0.281,51.17,-35.82,1.04,0,131.76,0.0,1.0,0.0,0.0,1.0,1,100.0,109.8,51.09,1,1.0,0,1.0,0,1.0,0,1.0,0,1.0
1477,'1',20.077,6.023,6.023,-6.023,1.042,1475,247.8,0.0,1.0,0.0,0.0,1.0,1,100.0,20.077,0.0,1,1.0,0,1.0,0,1.0,0,1.0,1,1.0
1482,'1',5.534,1.977,1.977,-1.977,1.04,0,95.88,0.0,1.0,0.0,0.0,1.0,1,100.0,6.589,0.0,1,1.0,0,1.0,0,1.0,0,1.0,1,1.0
1484,'1',0.479,0.23,0.23,-0.16,1.04,0,0.6,0.0,1.0,0.0,0.0,1.0,1,100.0,0.5,0.01,1,1.0,0,1.0,0,1.0,0,1.0,0,1.0
1484,'2',1.724,0.84,0.84,-0.59,1.04,0,2.16,0.0,1.0,0.0,0.0,1.0,1,100.0,1.8,0.45,1,1.0,0,1.0,0,1.0,0,1.0,0,1.0
1487,'1',1.082,-0.378,0.58,-0.41,1.04,0,1.36,0.0,1.0,0.0,0.0,1.0,1,100.0,1.13,0.41,1,1.0,0,1.0,0,1.0,0,1.0,0,1.0
1487,'2',1.082,-0.378,0.58,-0.41,1.04,0,1.36,0.0,1.0,0.0,0.0,1.0,1,100.0,1.13,0.32,1,1.0,0,1.0,0,1.0,0,1.0,0,1.0
1488,'1',1.082,-0.41,0.58,-0.41,1.04,0,1.36,0.0,1.0,0.0,0.0,1.0,1,100.0,1.13,0.47,1,1.0,0,1.0,0,1.0,0,1.0,0,1.0
1491,'1',1.341,-0.378,0.65,-0.46,1.04,0,1.68,0.0,1.0,0.0,0.0,1.0,1,100.0,1.4,0.19,1,1.0,0,1.0,0,1.0,0,1.0,0,1.0
1491,'2',1.341,-0.378,0.65,-0.46,1.04,0,1.68,0.0,1.0,0.0,0.0,1.0,1,100.0,1.4,0.42,1,1.0,0,1.0,0,1.0,0,1.0,0,1.0
1492,'1',1.341,-0.299,0.65,-0.46,1.04,0,1.68,0.0,1.0,0.0,0.0,1.0,1,100.0,1.4,0.18,1,1.0,0,1.0,0,1.0,0,1.0,0,1.0
1492,'2',1.341,-0.299,0.65,-0.46,1.04,0,1.68,0.0,1.0,0.0,0.0,1.0,1,100.0,1.4,0.21,1,1.0,0,1.0,0,1.0,0,1.0,0,1.0
1493,'1',1.341,-0.366,0.65,-0.46,1.04,0,1.68,0.0,1.0,0.0,0.0,1.0,1,100.0,1.4,0.69,1,1.0,0,1.0,0,1.0,0,1.0,0,1.0
1493,'2',0.718,-0.25,0.35,-0.25,1.04,0,0.9,0.0,1.0,0.0,0.0,1.0,1,100.0,0.75,0.27,1,1.0,0,1.0,0,1.0,0,1.0,0,1.0
1494,'1',0.718,-0.004,0.35,-0.25,1.04,0,0.9,0.0,1.0,0.0,0.0,1.0,1,100.0,0.75,0.31,1,1.0,0,1.0,0,1.0,0,1.0,0,1.0
1497,'1',0.556,0.02,0.27,-0.19,1.04,0,0.69,0.0,1.0,0.0,0.0,1.0,1,100.0,0.58,0.1,1,1.0,0,1.0,0,1.0,0,1.0,0,1.0
1498,'1',0.556,0.187,0.27,-0.19,1.04,0,0.69,0.0,1.0,0.0,0.0,1.0,1,100.0,0.58,0.18,1,1.0,0,1.0,0,1.0,0,1.0,0,1.0
1498,'2',0.556,0.187,0.27,-0.19,1.04,0,0.69,0.0,1.0,0.0,0.0,1.0,1,100.0,0.58,0.2,1,1.0,0,1.0,0,1.0,0,1.0,0,1.0
1499,'1',0.556,0.033,0.27,-0.19,1.04,0,0.69,0.0,1.0,0.0,0.0,1.0,1,100.0,0.58,0.21,1,1.0,0,1.0,0,1.0,0,1.0,0,1.0
1503,'1',0.814,-0.3,0.43,-0.3,1.04,0,1.02,0.0,1.0,0.0,0.0,1.0,1,100.0,0.85,0.2,1,1.0,0,1.0,0,1.0,0,1.0,0,1.0
1503,'2',0.814,-0.3,0.43,-0.3,1.04,0,1.02,0.0,1.0,0.0,0.0,1.0,1,100.0,0.85,0.12,1,1.0,0,1.0,0,1.0,0,1.0,0,1.0
1504,'1',0.0,0.0,0.43,-0.3,1.04,0,1.02,0.0,1.0,0.0,0.0,1.0,0,100.0,0.85,0.38,1,1.0,0,1.0,0,1.0,0,1.0,0,1.0
1505,'1',0.814,-0.025,0.43,-0.3,1.04,0,1.02,0.0,1.0,0.0,0.0,1.0,1,100.0,0.85,0.21,1,1.0,0,1.0,0,1.0,0,1.0,0,1.0
1506,'1',0.575,-0.22,0.31,-0.22,1.04,0,0.72,0.0,1.0,0.0,0.0,1.0,1,100.0,0.6,0.17,1,1.0,0,1.0,0,1.0,0,1.0,0,1.0
1506,'2',0.575,-0.22,0.31,-0.22,1.04,0,0.72,0.0,1.0,0.0,0.0,1.0,1,100.0,0.6,0.16,1,1.0,0,1.0,0,1.0,0,1.0,0,1.0
1508,'1',0.939,0.5,0.5,-0.35,1.04,0,1.17,0.0,1.0,0.0,0.0,1.0,1,100.0,0.98,0.31,1,1.0,0,1.0,0,1.0,0,1.0,0,1.0
1509,'1',0.939,-0.276,0.5,-0.35,1.04,0,1.17,0.0,1.0,0.0,0.0,1.0,1,100.0,0.98,0.4,1,1.0,0,1.0,0,1.0,0,1.0,0,1.0
1509,'2',0.939,-0.276,0.5,-0.35,1.04,0,1.17,0.0,1.0,0.0,0.0,1.0,1,100.0,0.98,0.29,1,1.0,0,1.0,0,1.0,0,1.0,0,1.0
1509,'3',0.939,-0.276,0.5,-0.35,1.04,0,1.17,0.0,1.0,0.0,0.0,1.0,1,100.0,0.98,0.46,1,1.0,0,1.0,0,1.0,0,1.0,0,1.0
1513,'1',1.197,0.58,0.58,-0.41,1.04,0,1.5,0.0,1.0,0.0,0.0,1.0,1,100.0,1.25,0.37,1,1.0,0,1.0,0,1.0,0,1.0,0,1.0
...
0 / END OF GENERATOR DATA BEGIN BRANCH DATA
1,3,'1',0.01313,0.0422,0.00106056,63.6,63.6,63.6,0.0,0.0,0.0,0.0,1,1,4.65,1,1.0,0,1.0,0,1.0,0,1.0
2,4,'1',0.0002,0.00106,0.0,322.0,322.0,322.0,0.0,0.0,0.0,0.0,1,1,0.0,1,1.0,0,1.0,0,1.0,0,1.0
2,1565,'1',0.00841,0.04589,0.0221834,223.7,223.7,223.7,0.0,0.0,0.0,0.0,1,1,17.87,1,1.0,0,1.0,0,1.0,0,1.0
3,995,'1',0.10316,0.23914,0.00412069,59.3,59.3,59.3,0.0,0.0,0.0,0.0,1,1,17.47,1,1.0,0,1.0,0,1.0,0,1.0
3,997,'1',0.08873,0.22305,0.0017828,58.4,58.4,58.4,0.0,0.0,0.0,0.0,1,1,12.6,1,1.0,0,1.0,0,1.0,0,1.0
5,15,'1',0.03587,0.08957,0.00326876,55.8,55.8,55.8,0.0,0.0,0.0,0.0,1,1,10.45,1,1.0,0,1.0,0,1.0,0,1.0
5,1223,'1',0.03741,0.08374,0.00721067,51.6,51.6,51.6,0.0,0.0,0.0,0.0,1,1,13.29,1,1.0,0,1.0,0,1.0,0,1.0
6,11,'1',0.03144,0.0816,0.00438315,73.6,73.6,73.6,0.0,0.0,0.0,0.0,1,1,13.15,1,1.0,0,1.0,0,1.0,0,1.0
6,24,'1',0.08468,0.21522,0.0027763,60.7,60.7,60.7,0.0,0.0,0.0,0.0,1,1,13.51,1,1.0,0,1.0,0,1.0,0,1.0
6,281,'1',0.08228,0.2017,0.00315245,58.3,58.3,58.3,0.0,0.0,0.0,0.0,1,1,13.07,1,1.0,0,1.0,0,1.0,0,1.0
6,282,'1',0.10087,0.2659,0.00641407,54.9,54.9,54.9,0.0,0.0,0.0,0.0,1,1,22.8,1,1.0,0,1.0,0,1.0,0,1.0
7,9,'1',0.00029,0.00119,0.0,322.0,322.0,322.0,0.0,0.0,0.0,0.0,1,1,0.0,1,1.0,0,1.0,0,1.0,0,1.0
8,15,'1',0.05541,0.14602,0.00519108,58.5,58.5,58.5,0.0,0.0,0.0,0.0,1,1,14.76,1,1.0,0,1.0,0,1.0,0,1.0
9,1429,'1',0.00314,0.02004,0.00714349,253.3,253.3,253.3,0.0,0.0,0.0,0.0,1,1,8.04,1,1.0,0,1.0,0,1.0,0,1.0
10,11,'1',0.02801,0.09239,0.0011754,69.5,69.5,69.5,0.0,0.0,0.0,0.0,1,1,7.32,1,1.0,0,1.0,0,1.0,0,1.0
10,1428,'1',0.02247,0.06596,0.00141151,81.1,81.1,81.1,0.0,0.0,0.0,0.0,1,1,6.71,1,1.0,0,1.0,0,1.0,0,1.0
11,27,'1',0.10225,0.29273,0.00749165,62.9,62.9,62.9,0.0,0.0,0.0,0.0,1,1,24.86,1,1.0,0,1.0,0,1.0,0,1.0
11,284,'1',0.0571,0.12365,0.00195983,38.6,38.6,38.6,0.0,0.0,0.0,0.0,1,1,8.81,1,1.0,0,1.0,0,1.0,0,1.0
12,14,'1',0.00026,0.00118,0.0,193.2,193.2,193.2,0.0,0.0,0.0,0.0,1,1,0.0,1,1.0,0,1.0,0,1.0,0,1.0
13,17,'1',0.02404,0.06292,0.000684217,67.8,67.8,67.8,0.0,0.0,0.0,0.0,1,1,4.69,1,1.0,0,1.0,0,1.0,0,1.0
13,25,'1',0.01667,0.04868,0.0105321,62.7,62.7,62.7,0.0,0.0,0.0,0.0,1,1,12.06,1,1.0,0,1.0,0,1.0,0,1.0
15,16,'1',0.00025,0.00113,0.0,82.8,82.8,82.8,0.0,0.0,0.0,0.0,1,1,0.0,1,1.0,0,1.0,0,1.0,0,1.0
17,1401,'1',0.02167,0.05696,0.000562571,76.2,76.2,76.2,0.0,0.0,0.0,0.0,1,1,3.7,1,1.0,0,1.0,0,1.0,0,1.0
18,17,'1',0.01641,0.0419,0.00069683,68.4,68.4,68.4,0.0,0.0,0.0,0.0,1,1,3.07,1,1.0,0,1.0,0,1.0,0,1.0
19,18,'1',0.04978,0.12154,0.00125506,66.3,66.3,66.3,0.0,0.0,0.0,0.0,1,1,8.75,1,1.0,0,1.0,0,1.0,0,1.0
19,21,'1',0.04995,0.10901,0.00117582,65.1,65.1,65.1,0.0,0.0,0.0,0.0,1,1,6.77,1,1.0,0,1.0,0,1.0,0,1.0
20,22,'1',0.02915,0.0669,0.00356269,59.0,59.0,59.0,0.0,0.0,0.0,0.0,1,1,10.12,1,1.0,0,1.0,0,1.0,0,1.0
20,124,'1',0.04016,0.10271,0.00133448,60.9,60.9,60.9,0.0,0.0,0.0,0.0,0,1,8.31,1,1.0,0,1.0,0,1.0,0,1.0
21,789,'1',0.04461,0.10843,0.00441154,63.8,63.8,63.8,0.0,0.0,0.0,0.0,1,1,11.17,1,1.0,0,1.0,0,1.0,0,1.0
22,25,'1',0.02407,0.07881,0.000658623,60.3,60.3,60.3,0.0,0.0,0.0,0.0,1,1,5.65,1,1.0,0,1.0,0,1.0,0,1.0
23,24,'1',0.00024,0.00118,0.0,82.8,82.8,82.8,0.0,0.0,0.0,0.0,1,1,0.0,1,1.0,0,1.0,0,1.0,0,1.0
24,8,'1',0.03763,0.09028,0.0030984,63.6,63.6,63.6,0.0,0.0,0.0,0.0,1,1,10.36,1,1.0,0,1.0,0,1.0,0,1.0
26,27,'1',0.00813,0.02038,0.000636728,69.1,69.1,69.1,0.0,0.0,0.0,0.0,1,1,2.46,1,1.0,0,1.0,0,1.0,0,1.0
27,28,'1',0.00026,0.001,0.0,82.8,82.8,82.8,0.0,0.0,0.0,0.0,1,1,0.0,1,1.0,0,1.0,0,1.0,0,1.0
27,147,'1',0.05735,0.12659,0.00152507,61.1,61.1,61.1,0.0,0.0,0.0,0.0,1,1,10.94,1,1.0,0,1.0,0,1.0,0,1.0
29,30,'1',0.00022,0.00118,0.0,82.8,82.8,82.8,0.0,0.0,0.0,0.0,1,1,0.0,1,1.0,0,1.0,0,1.0,0,1.0
29,39,'1',0.04234,0.13488,0.00334089,37.7,37.7,37.7,0.0,0.0,0.0,0.0,1,1,10.74,1,1.0,0,1.0,0,1.0,0,1.0
31,42,'1',0.06561,0.14634,0.00218529,62.3,62.3,62.3,0.0,0.0,0.0,0.0,1,1,13.21,1,1.0,0,1.0,0,1.0,0,1.0
31,50,'1',0.02108,0.06968,0.00513297,61.6,61.6,61.6,0.0,0.0,0.0,0.0,1,1,11.99,1,1.0,0,1.0,0,1.0,0,1.0
32,1512,'1',0.02773,0.062,0.00175154,61.5,61.5,61.5,0.0,0.0,0.0,0.0,1,1,6.48,1,1.0,0,1.0,0,1.0,0,1.0
33,34,'1',0.02886,0.06334,0.00117304,55.0,55.0,55.0,0.0,0.0,0.0,0.0,1,1,5.8,1,1.0,0,1.0,0,1.0,0,1.0
33,44,'1',0.03836,0.10125,0.0107134,50.5,50.5,50.5,0.0,0.0,0.0,0.0,1,1,16.32,1,1.0,0,1.0,0,1.0,0,1.0
34,32,'1',0.0238,0.06212,0.00119608,58.8,58.8,58.8,0.0,0.0,0.0,0.0,1,1,5.04,1,1.0,0,1.0,0,1.0,0,1.0
35,36,'1',0.00023,0.00106,0.0,82.8,82.8,82.8,0.0,0.0,0.0,0.0,1,1,0.0,1,1.0,0,1.0,0,1.0,0,1.0
36,37,'1',0.04153,0.10802,0.00105559,58.9,58.9,58.9,0.0,0.0,0.0,0.0,1,1,7.93,1,1.0,0,1.0,0,1.0,0,1.0
38,1224,'1',0.08241,0.20818,0.00311698,52.3,52.3,52.3,0.0,0.0,0.0,0.0,1,1,14.07,1,1.0,0,1.0,0,1.0,0,1.0
39,36,'1',0.0676,0.16153,0.00551525,62.3,62.3,62.3,0.0,0.0,0.0,0.0,1,1,16.31,1,1.0,0,1.0,0,1.0,0,1.0
39,46,'1',0.04744,0.14161,0.0100342,56.2,56.2,56.2,0.0,0.0,0.0,0.0,1,1,20.67,1,1.0,0,1.0,0,1.0,0,1.0
41,43,'1',0.00028,0.00119,0.0,322.0,322.0,322.0,0.0,0.0,0.0,0.0,1,1,0.0,1,1.0,0,1.0,0,1.0,0,1.0
41,1511,'1',0.0075,0.04091,0.0175041,225.4,225.4,225.4,0.0,0.0,0.0,0.0,1,1,13.8,1,1.0,0,1.0,0,1.0,0,1.0
42,40,'1',0.02716,0.06455,0.000985665,39.0,39.0,39.0,0.0,0.0,0.0,0.0,1,1,5.85,1,1.0,0,1.0,0,1.0,0,1.0
44,45,'1',0.00022,0.00118,0.0,82.8,82.8,82.8,0.0,0.0,0.0,0.0,1,1,0.0,1,1.0,0,1.0,0,1.0,0,1.0
44,46,'1',0.0356,0.08859,0.00230199,48.4,48.4,48.4,0.0,0.0,0.0,0.0,1,1,9.78,1,1.0,0,1.0,0,1.0,0,1.0
44,813,'1',0.07826,0.23232,0.00738698,48.8,48.8,48.8,0.0,0.0,0.0,0.0,1,1,21.79,1,1.0,0,1.0,0,1.0,0,1.0
47,42,'1',0.03479,0.10346,0.00577533,65.2,65.2,65.2,0.0,0.0,0.0,0.0,1,1,12.84,1,1.0,0,1.0,0,1.0,0,1.0
47,1512,'1',0.02577,0.0455,0.000498006,54.1,54.1,54.1,0.0,0.0,0.0,0.0,1,1,3.42,1,1.0,0,1.0,0,1.0,0,1.0
48,47,'1',0.01254,0.03273,0.00170119,46.6,46.6,46.6,0.0,0.0,0.0,0.0,1,1,4.34,1,1.0,0,1.0,0,1.0,0,1.0
49,1019,'1',0.03556,0.08966,0.00869286,57.3,57.3,57.3,0.0,0.0,0.0,0.0,1,1,14.91,1,1.0,0,1.0,0,1.0,0,1.0
50,51,'1',0.00027,0.00112,0.0,82.8,82.8,82.8,0.0,0.0,0.0,0.0,1,1,0.0,1,1.0,0,1.0,0,1.0,0,1.0
50,93,'1',0.02487,0.06181,0.0111441,64.8,64.8,64.8,0.0,0.0,0.0,0.0,1,1,13.85,1,1.0,0,1.0,0,1.0,0,1.0
52,50,'1',0.04122,0.10108,0.00144688,64.6,64.6,64.6,0.0,0.0,0.0,0.0,1,1,8.09,1,1.0,0,1.0,0,1.0,0,1.0
53,54,'1',0.06349,0.13884,0.00356796,54.1,54.1,54.1,0.0,0.0,0.0,0.0,1,1,11.6,1,1.0,0,1.0,0,1.0,0,1.0
53,55,'1',0.18742,0.38508,0.00445659,55.1,55.1,55.1,0.0,0.0,0.0,0.0,1,1,22.56,1,1.0,0,1.0,0,1.0,0,1.0
54,57,'1',0.03719,0.11687,0.00418983,55.4,55.4,55.4,0.0,0.0,0.0,0.0,1,1,12.28,1,1.0,0,1.0,0,1.0,0,1.0
55,56,'1',0.00026,0.00107,0.0,82.8,82.8,82.8,0.0,0.0,0.0,0.0,1,1,0.0,1,1.0,0,1.0,0,1.0,0,1.0
55,59,'1',0.12679,0.25425,0.00390763,58.9,58.9,58.9,0.0,0.0,0.0,0.0,1,1,17.52,1,1.0,0,1.0,0,1.0,0,1.0
55,247,'1',0.09425,0.26544,0.00646528,56.7,56.7,56.7,0.0,0.0,0.0,0.0,1,1,22.49,1,1.0,0,1.0,0,1.0,0,1.0
57,58,'1',0.00026,0.00105,0.0,82.8,82.8,82.8,0.0,0.0,0.0,0.0,1,1,0.0,1,1.0,0,1.0,0,1.0,0,1.0
57,792,'1',0.09536,0.21463,0.00617624,46.0,46.0,46.0,0.0,0.0,0.0,0.0,1,1,19.67,1,1.0,0,1.0,0,1.0,0,1.0
60,61,'1',0.01099,0.02645,0.000766571,63.3,63.3,63.3,0.0,0.0,0.0,0.0,1,1,2.74,1,1.0,0,1.0,0,1.0,0,1.0
60,1133,'1',0.01927,0.04625,0.00343702,65.5,65.5,65.5,0.0,0.0,0.0,0.0,1,1,6.51,1,1.0,0,1.0,0,1.0,0,1.0
61,62,'1',0.03918,0.08273,0.00745236,70.1,70.1,70.1,0.0,0.0,0.0,0.0,1,1,13.25,1,1.0,0,1.0,0,1.0,0,1.0
63,1365,'1',0.06866,0.16898,0.00364856,51.9,51.9,51.9,0.0,0.0,0.0,0.0,1,1,13.55,1,1.0,0,1.0,0,1.0,0,1.0
64,66,'1',0.00024,0.00118,0.0,1500.0,1500.0,1500.0,0.0,0.0,0.0,0.0,1,1,0.0,1,1.0,0,1.0,0,1.0,0,1.0
65,64,'1',0.0003,0.0203,0.0,947.2,947.2,947.2,0.0,0.0,0.0,0.0,1,1,0.0,1,1.0,0,1.0,0,1.0,0,1.0
65,75,'1',0.01623,0.10623,0.0839435,232.0,232.0,232.0,0.0,0.0,0.0,0.0,1,1,51.05,1,1.0,0,1.0,0,1.0,0,1.0
65,971,'1',0.00795,0.0484,0.0465639,240.5,240.5,240.5,0.0,0.0,0.0,0.0,1,1,25.3,1,1.0,0,1.0,0,1.0,0,1.0
65,1146,'1',0.00316,0.01703,0.0350861,296.1,296.1,296.1,0.0,0.0,0.0,0.0,1,1,12.74,1,1.0,0,1.0,0,1.0,0,1.0
67,69,'1',0.00027,0.00105,0.0,322.0,322.0,322.0,0.0,0.0,0.0,0.0,1,1,0.0,1,1.0,0,1.0,0,1.0,0,1.0
67,1150,'1',0.00294,0.01807,0.109657,239.5,239.5,239.5,0.0,0.0,0.0,0.0,1,1,24.13,1,1.0,0,1.0,0,1.0,0,1.0
68,71,'1',0.04031,0.08685,0.00190578,64.3,64.3,64.3,0.0,0.0,0.0,0.0,1,1,9.0,1,1.0,0,1.0,0,1.0,0,1.0
70,68,'1',0.05686,0.09742,0.00176764,61.8,61.8,61.8,0.0,0.0,0.0,0.0,1,1,8.13,1,1.0,0,1.0,0,1.0,0,1.0
71,70,'1',0.05982,0.14452,0.00426608,61.6,61.6,61.6,0.0,0.0,0.0,0.0,1,1,13.61,1,1.0,0,1.0,0,1.0,0,1.0
71,1255,'1',0.12471,0.23182,0.00869645,75.1,75.1,75.1,0.0,0.0,0.0,0.0,1,1,24.02,1,1.0,0,1.0,0,1.0,0,1.0
72,73,'1',0.06473,0.12817,0.000785679,44.7,44.7,44.7,0.0,0.0,0.0,0.0,1,1,6.84,1,1.0,0,1.0,0,1.0,0,1.0
72,1255,'1',0.01887,0.04138,0.000489991,64.0,64.0,64.0,0.0,0.0,0.0,0.0,0,1,3.18,1,1.0,0,1.0,0,1.0,0,1.0
72,1365,'1',0.00885,0.02504,0.000719839,70.0,70.0,70.0,0.0,0.0,0.0,0.0,0,1,2.49,1,1.0,0,1.0,0,1.0,0,1.0
73,805,'1',0.06533,0.12364,0.001864,36.7,36.7,36.7,0.0,0.0,0.0,0.0,1,1,9.01,1,1.0,0,1.0,0,1.0,0,1.0
74,63,'1',0.05576,0.18403,0.00400422,39.9,39.9,39.9,0.0,0.0,0.0,0.0,1,1,14.49,1,1.0,0,1.0,0,1.0,0,1.0
75,1366,'1',0.01862,0.1102,0.030958,224.0,224.0,224.0,0.0,0.0,0.0,0.0,1,1,33.47,1,1.0,0,1.0,0,1.0,0,1.0
76,273,'1',0.06315,0.14536,0.00623489,66.6,66.6,66.6,0.0,0.0,0.0,0.0,1,1,16.92,1,1.0,0,1.0,0,1.0,0,1.0
76,1365,'1',0.02455,0.04642,0.0333872,68.8,68.8,68.8,0.0,0.0,0.0,0.0,1,1,21.95,1,1.0,0,1.0,0,1.0,0,1.0
77,78,'1',0.12509,0.34626,0.00526885,44.1,44.1,44.1,0.0,0.0,0.0,0.0,1,1,23.52,1,1.0,0,1.0,0,1.0,0,1.0
78,936,'1',0.11939,0.24271,0.00422818,45.4,45.4,45.4,0.0,0.0,0.0,0.0,1,1,17.57,1,1.0,0,1.0,0,1.0,0,1.0
79,81,'1',0.00025,0.00115,0.0,193.2,193.2,193.2,0.0,0.0,0.0,0.0,1,1,0.0,1,1.0,0,1.0,0,1.0,0,1.0
80,82,'1',0.01429,0.0305,0.00243608,68.2,68.2,68.2,0.0,0.0,0.0,0.0,1,1,5.13,1,1.0,0,1.0,0,1.0,0,1.0
80,84,'1',0.03237,0.09116,0.000815056,57.9,57.9,57.9,0.0,0.0,0.0,0.0,1,1,5.42,1,1.0,0,1.0,0,1.0,0,1.0
81,977,'1',0.01002,0.06483,0.0360946,237.8,237.8,237.8,0.0,0.0,0.0,0.0,1,1,26.1,1,1.0,0,1.0,0,1.0,0,1.0
81,1327,'1',0.00494,0.02728,0.0337926,282.5,282.5,282.5,0.0,0.0,0.0,0.0,1,1,16.82,1,1.0,0,1.0,0,1.0,0,1.0
82,83,'1',0.02194,0.05695,0.00290635,54.6,54.6,54.6,0.0,0.0,0.0,0.0,1,1,8.44,1,1.0,0,1.0,0,1.0,0,1.0
82,95,'1',0.03315,0.10152,0.00223184,63.0,63.0,63.0,0.0,0.0,0.0,0.0,1,1,9.5,1,1.0,0,1.0,0,1.0,0,1.0
86,87,'1',0.00021,0.00118,0.0,82.8,82.8,82.8,0.0,0.0,0.0,0.0,1,1,0.0,1,1.0,0,1.0,0,1.0,0,1.0
86,90,'1',0.04516,0.10658,0.00174493,54.0,54.0,54.0,0.0,0.0,0.0,0.0,1,1,8.15,1,1.0,0,1.0,0,1.0,0,1.0
86,95,'1',0.04212,0.11971,0.00189271,56.5,56.5,56.5,0.0,0.0,0.0,0.0,1,1,10.11,1,1.0,0,1.0,0,1.0,0,1.0
88,89,'1',0.00022,0.0011,0.0,82.8,82.8,82.8,0.0,0.0,0.0,0.0,1,1,0.0,1,1.0,0,1.0,0,1.0,0,1.0
89,90,'1',0.02314,0.0696,0.00159905,54.2,54.2,54.2,0.0,0.0,0.0,0.0,1,1,7.45,1,1.0,0,1.0,0,1.0,0,1.0
89,949,'1',0.08751,0.16269,0.00547592,52.3,52.3,52.3,0.0,0.0,0.0,0.0,1,1,15.94,1,1.0,0,1.0,0,1.0,0,1.0
90,91,'1',0.00025,0.00111,0.0,82.8,82.8,82.8,0.0,0.0,0.0,0.0,1,1,0.0,1,1.0,0,1.0,0,1.0,0,1.0
90,945,'1',0.04932,0.11327,0.001833,49.9,49.9,49.9,0.0,0.0,0.0,0.0,1,1,9.0,1,1.0,0,1.0,0,1.0,0,1.0
92,93,'1',0.00025,0.00103,0.0,82.8,82.8,82.8,0.0,0.0,0.0,0.0,1,1,0.0,1,1.0,0,1.0,0,1.0,0,1.0
93,37,'1',0.05675,0.1069,0.00257658,55.9,55.9,55.9,0.0,0.0,0.0,0.0,1,1,10.63,1,1.0,0,1.0,0,1.0,0,1.0
93,1481,'1',0.02165,0.06009,0.00068862,67.2,67.2,67.2,0.0,0.0,0.0,0.0,1,1,3.67,1,1.0,0,1.0,0,1.0,0,1.0
94,95,'1',0.06187,0.17098,0.00266755,50.7,50.7,50.7,0.0,0.0,0.0,0.0,1,1,12.83,1,1.0,0,1.0,0,1.0,0,1.0
94,980,'1',0.06118,0.12168,0.00183037,49.6,49.6,49.6,0.0,0.0,0.0,0.0,1,1,11.29,1,1.0,0,1.0,0,1.0,0,1.0
96,97,'1',0.03253,0.08057,0.000922186,61.3,61.3,61.3,0.0,0.0,0.0,0.0,1,1,5.07,1,1.0,0,1.0,0,1.0,0,1.0
97,100,'1',0.0429,0.14633,0.00171127,71.4,71.4,71.4,0.0,0.0,0.0,0.0,1,1,9.79,1,1.0,0,1.0,0,1.0,0,1.0
97,104,'1',0.10036,0.22171,0.0108369,65.5,65.5,65.5,0.0,0.0,0.0,0.0,1,1,26.49,1,1.0,0,1.0,0,1.0,0,1.0
99,98,'1',0.0002,0.01445,0.0,677.0,677.0,677.0,0.0,0.0,0.0,0.0,1,1,0.0,1,1.0,0,1.0,0,1.0,0,1.0
99,101,'1',0.00029,0.00111,0.0,322.0,322.0,322.0,0.0,0.0,0.0,0.0,1,1,0.0,1,1.0,0,1.0,0,1.0,0,1.0
100,96,'1',0.02125,0.06228,0.000833431,72.3,72.3,72.3,0.0,0.0,0.0,0.0,1,1,4.44,1,1.0,0,1.0,0,1.0,0,1.0
100,649,'1',0.09918,0.21878,0.0079419,53.9,53.9,53.9,0.0,0.0,0.0,0.0,1,1,23.06,1,1.0,0,1.0,0,1.0,0,1.0
102,103,'1',0.00026,0.00101,0.0,82.8,82.8,82.8,0.0,0.0,0.0,0.0,1,1,0.0,1,1.0,0,1.0,0,1.0,0,1.0
103,372,'1',0.11462,0.28035,0.00459568,65.3,65.3,65.3,0.0,0.0,0.0,0.0,1,1,19.27,1,1.0,0,1.0,0,1.0,0,1.0
104,103,'1',0.05491,0.15351,0.00173905,62.1,62.1,62.1,0.0,0.0,0.0,0.0,1,1,10.19,1,1.0,0,1.0,0,1.0,0,1.0
104,1133,'1',0.12768,0.28238,0.00436851,68.1,68.1,68.1,0.0,0.0,0.0,0.0,1,1,20.55,1,1.0,0,1.0,0,1.0,0,1.0
105,106,'1',0.00026,0.00113,0.0,82.8,82.8,82.8,0.0,0.0,0.0,0.0,1,1,0.0,1,1.0,0,1.0,0,1.0,0,1.0
108,109,'1',0.00027,0.00113,0.0,82.8,82.8,82.8,0.0,0.0,0.0,0.0,1,1,0.0,1,1.0,0,1.0,0,1.0,0,1.0
109,4838,'1',0.01559,0.04139,0.00213104,60.7,60.7,60.7,0.0,0.0,0.0,0.0,0,1,5.44,1,1.0,0,1.0,0,1.0,0,1.0
110,111,'1',0.1188,0.27355,0.00577727,45.1,45.1,45.1,0.0,0.0,0.0,0.0,1,1,21.41,1,1.0,0,1.0,0,1.0,0,1.0
110,4961,'1',0.14314,0.33433,0.00469643,48.3,48.3,48.3,0.0,0.0,0.0,0.0,1,1,22.68,1,1.0,0,1.0,0,1.0,0,1.0
111,105,'1',0.08926,0.20021,0.0015973,43.7,43.7,43.7,0.0,0.0,0.0,0.0,1,1,12.33,1,1.0,0,1.0,0,1.0,0,1.0
112,111,'1',0.05043,0.12959,0.00127723,53.2,53.2,53.2,0.0,0.0,0.0,0.0,1,1,8.34,1,1.0,0,1.0,0,1.0,0,1.0
113,114,'1',0.00998,0.02695,0.00206604,48.5,48.5,48.5,0.0,0.0,0.0,0.0,1,1,4.93,1,1.0,0,1.0,0,1.0,0,1.0
114,115,'1',0.00029,0.00102,0.0,82.8,82.8,82.8,0.0,0.0,0.0,0.0,1,1,0.0,1,1.0,0,1.0,0,1.0,0,1.0
114,116,'1',0.0979,0.2023,0.00688085,59.8,59.8,59.8,0.0,0.0,0.0,0.0,1,1,20.26,1,1.0,0,1.0,0,1.0,0,1.0
114,117,'1',0.1638,0.37243,0.00336096,60.9,60.9,60.9,0.0,0.0,0.0,0.0,1,1,18.68,1,1.0,0,1.0,0,1.0,0,1.0
117,1051,'1',0.04619,0.11277,0.00200919,68.6,68.6,68.6,0.0,0.0,0.0,0.0,1,1,9.53,1,1.0,0,1.0,0,1.0,0,1.0
118,331,'1',0.05902,0.13355,0.00937268,66.0,66.0,66.0,0.0,0.0,0.0,0.0,1,1,19.66,1,1.0,0,1.0,0,1.0,0,1.0
119,118,'1',0.04837,0.13813,0.00231517,65.4,65.4,65.4,0.0,0.0,0.0,0.0,1,1,12.34,1,1.0,0,1.0,0,1.0,0,1.0
119,125,'1',0.0658,0.188,0.00278949,68.4,68.4,68.4,0.0,0.0,0.0,0.0,1,1,11.7,1,1.0,0,1.0,0,1.0,0,1.0
120,121,'1',0.0002,0.00106,0.0,82.8,82.8,82.8,0.0,0.0,0.0,0.0,1,1,0.0,1,1.0,0,1.0,0,1.0,0,1.0
...